pcf
* control data
restart estimation
50    11989      18       0       2
2    2 single point   1   0   0
10.0  -3  0.3  0.03  10  lamforgive derforgive
10.0  10.0  0.001
0.1  noaui
0  0.005  4  4  0.005  4
1  1  1  PARSAVEITN
* singular value decomposition
1
50 5E-06
1
* parameter groups
ddsd         relative 0.025  0.0  switch  2.0 parabolic 1.0e-4 0.5 smaller
ddsw         relative 0.025  0.0  switch  2.0 parabolic 1.0e-4 0.5 smaller
ddgd         relative 0.025  0.0  switch  2.0 parabolic 1.0e-4 0.5 smaller
ddgw         relative 0.025  0.0  switch  2.0 parabolic 1.0e-4 0.5 smaller
rcsd         relative 0.025  0.0  switch  2.0 parabolic 1.0e-4 0.5 smaller
rcsw         relative 0.025  0.0  switch  2.0 parabolic 1.0e-4 0.5 smaller
rcrd         relative 0.025  0.0  switch  2.0 parabolic 1.0e-4 0.5 smaller
rcrw         relative 0.025  0.0  switch  2.0 parabolic 1.0e-4 0.5 smaller
rcgd         relative 0.025  0.0  switch  2.0 parabolic 1.0e-4 0.5 smaller
rcgw         relative 0.025  0.0  switch  2.0 parabolic 1.0e-4 0.5 smaller
tl           relative 0.025  0.0  switch  2.0 parabolic 1.0e-4 0.5 smaller
xw           relative 0.025  0.0  switch  2.0 parabolic 1.0e-4 0.5 smaller
yw           relative 0.03  0.0  switch  2.0 parabolic 1.0e-4 0.5 smaller
x           relative 0.025  0.0  switch  2.0 parabolic 1.0e-4 0.5 smaller
y            relative 0.025  0.0  switch  2.0 parabolic 1.0e-4 0.5 smaller
tlr			 relative 0.5  0.0  switch  2.0 parabolic 1.0e-4 0.5 smaller
tls			 relative 0.5  0.0  switch  2.0 parabolic 1.0e-4 0.5 smaller
beta			 relative 0.025  0.0  switch  2.0 parabolic 1.0e-4 0.5 smaller
* parameter data
ddsd	log	factor   0.1474600      1.00e-01	2.1	ddsd	1	0	1
ddsw	log	factor   0.4497800      1.00e-01	2.1	ddsw	1	0	1
ddgd	log	factor    1.968687      1.00e-08	2.1	ddgd	1	0	1
ddgw	log	factor   0.3586736      1.00e-08	2.1	ddgw	1	0	1
rcs1d	log	factor   0.9014473      1.00e-08	2	rcsd	1	0	1
rcs1w	log	factor   0.8175801      1.00e-08	2	rcsw	1	0	1
rcs2d	log	factor   0.1951079      1.00e-08	2	rcsd	1	0	1
rcs2w	log	factor   8.2540066E-02  1.00e-08	2	rcsw	1	0	1
rcs3d	log	factor   1.3106235E-02  1.00e-08	1	rcsd	1	0	1
rcs3w	log	factor   0.6899101      1.00e-08	1	rcsw	1	0	1
rcs4d	log	factor   1.7537541E-03  1.00e-08	1	rcsd	1	0	1
rcs4w	log	factor   2.0383202E-03  1.00e-08	1	rcsw	1	0	1
rcs5d	log	factor    1.000000      1.00e-08	1	rcsd	1	0	1
rcs5w	log	factor   0.3420495      1.00e-08	1	rcsw	1	0	1
rcs6d	log	factor   1.9861420E-02  1.00e-08	1	rcsd	1	0	1
rcs6w	log	factor    1.000000      1.00e-08	1	rcsw	1	0	1
rcs7d	log	factor   5.0154030E-03  1.00e-08	1	rcsd	1	0	1
rcs7w	log	factor    1.000000      1.00e-08	1	rcsw	1	0	1
rcs8d	log	factor   4.9528205E-03  1.00e-08	1	rcsd	1	0	1
rcs8w	log	factor    1.000000      1.00e-08	1	rcsw	1	0	1
rcs9d	log	factor   4.9404209E-03  1.00e-08	1	rcsd	1	0	1
rcs9w	log	factor   0.9001558      1.00e-08	1	rcsw	1	0	1
rcr1d	log	factor   1.1304271E-02  1.00e-08	1	rcrd	1	0	1
rcr1w	log	factor   6.1959766E-02  1.00e-08	1	rcrw	1	0	1
rcr2d	log	factor   1.2022314E-03  1.00e-08	1	rcrd	1	0	1
rcr2w	log	factor   0.3975568      1.00e-08	1	rcrw	1	0	1
rcr3d	log	factor   7.0411845E-03  1.00e-08	1	rcrd	1	0	1
rcr3w	log	factor   1.4603766E-02  1.00e-08	1	rcrw	1	0	1
rcr4d	log	factor   2.8765146E-03  1.00e-08	1	rcrd	1	0	1
rcr4w	log	factor   1.4588927E-03  1.00e-08	1	rcrw	1	0	1
rcr5d	log	factor   0.2555224      1.00e-08	1	rcrd	1	0	1
rcr5w	log	factor   6.3870127E-04  1.00e-08	1	rcrw	1	0	1
rcr6d	log	factor   1.8488697E-03  1.00e-08	1	rcrd	1	0	1
rcr6w	log	factor   1.4984257E-03  1.00e-08	1	rcrw	1	0	1
rcr7d	log	factor   1.2134965E-03  1.00e-08	1	rcrd	1	0	1
rcr7w	log	factor   1.2458701E-03  1.00e-08	1	rcrw	1	0	1
rcr8d	log	factor   1.1748457E-03  1.00e-08	1	rcrd	1	0	1
rcr8w	log	factor   1.2459625E-03  1.00e-08	1	rcrw	1	0	1
rcr9d	log	factor   1.1699764E-03  1.00e-08	1	rcrd	1	0	1
rcr9w	log	factor   1.2453569E-03  1.00e-08	1	rcrw	1	0	1
rcgd	log	factor   0.1910783      1.00e-08	2	rcgd	1	0	1
rcgw	log	factor    1.678802      1.00e-08	2	rcgw	1	0	1
tl	log	factor    4.378425      1.00e-08	5	tl	1	0	1
xw	log	factor    1.420403      1.00e-08	2.1	xw	1	0	1
yw	log	factor   8.7677021E-02  1.00e-08	1	yw	1	0	1
x	log	factor    1.577462      1.00e-08	2.3	x	1	0	1
y	log	factor   4.3695017E-02  1.00e-08	1	y	1	0	1
tlr	log	factor   6.8200000E-02  1.00e-08	10	tlr	1	0	1
tls	log	factor   0.2220000      1.00e-08	30	tls	1	0	1
beta	log	factor   0.3000000      2.00e-01	3e-01	beta	1	0	1
* observation groups
q
swe
* observation data
 q1                    4890.000       0.707107      q
 q2                    4830.000       0.707107      q
 q3                    4790.000       0.707107      q
 q4                    4740.000       0.707107      q
 q5                    4690.000       0.707107      q
 q6                    4640.000       0.707107      q
 q7                    4600.000       0.707107      q
 q8                    4540.000       0.707107      q
 q9                    4450.000       0.707107      q
 q10                   4370.000       0.707107      q
 q11                   4350.000       0.707107      q
 q12                   4330.000       0.707107      q
 q13                   4320.000       0.707107      q
 q14                   4300.000       0.707107      q
 q15                   4260.000       0.707107      q
 q16                   4290.000       0.707107      q
 q17                   4240.000       0.707107      q
 q18                   4180.000       0.707107      q
 q19                   4210.000       0.707107      q
 q20                   4170.000       0.707107      q
 q21                   4170.000       0.707107      q
 q22                   4190.000       0.707107      q
 q23                   4120.000       0.707107      q
 q24                   4100.000       0.707107      q
 q25                   4100.000       0.707107      q
 q26                   4040.000       0.707107      q
 q27                   4010.000       0.707107      q
 q28                   4020.000       0.707107      q
 q29                   4050.000       0.707107      q
 q30                   4130.000       0.707107      q
 q31                   4070.000       0.707107      q
 q32                   4020.000       0.707107      q
 q33                   4090.000       0.707107      q
 q34                   4030.000       0.707107      q
 q35                   4100.000       0.707107      q
 q36                   4040.000       0.707107      q
 q37                   4010.000       0.707107      q
 q38                   3790.000       0.707107      q
 q39                   3800.000       0.707107      q
 q40                   3820.000       0.707107      q
 q41                   3770.000       0.707107      q
 q42                   3640.000       0.707107      q
 q43                   3670.000       0.707107      q
 q44                   3710.000       0.707107      q
 q45                   3660.000       0.707107      q
 q46                   3470.000       0.707107      q
 q47                   3530.000       0.707107      q
 q48                   3490.000       0.707107      q
 q49                   3400.000       0.707107      q
 q50                   3490.000       0.707107      q
 q51                   3460.000       0.707107      q
 q52                   3470.000       0.707107      q
 q53                   3590.000       0.707107      q
 q54                   3480.000       0.707107      q
 q55                   3360.000       0.707107      q
 q56                   3290.000       0.707107      q
 q57                   3450.000       0.707107      q
 q58                   3410.000       0.707107      q
 q59                   3280.000       0.707107      q
 q60                   3310.000       0.707107      q
 q61                   3320.000       0.707107      q
 q62                   3610.000       0.707107      q
 q63                   3550.000       0.707107      q
 q64                   3530.000       0.707107      q
 q65                   3540.000       0.707107      q
 q66                   3470.000       0.707107      q
 q67                   3390.000       0.707107      q
 q68                   3390.000       0.707107      q
 q69                   3380.000       0.707107      q
 q70                   3760.000       0.707107      q
 q71                   3800.000       0.707107      q
 q72                   3640.000       0.707107      q
 q73                   3570.000       0.707107      q
 q74                   3560.000       0.707107      q
 q75                   3360.000       0.707107      q
 q76                   3360.000       0.707107      q
 q77                   3290.000       0.707107      q
 q78                   3240.000       0.707107      q
 q79                   3130.000       0.707107      q
 q80                   3240.000       0.707107      q
 q81                   3140.000       0.707107      q
 q82                   2960.000       0.707107      q
 q83                   2960.000       0.707107      q
 q84                   2970.000       0.707107      q
 q85                   2960.000       0.707107      q
 q86                   2930.000       0.707107      q
 q87                   3050.000       0.707107      q
 q88                   2890.000       0.707107      q
 q89                   2830.000       0.707107      q
 q90                   2780.000       0.707107      q
 q91                   2830.000       0.707107      q
 q92                   2860.000       0.707107      q
 q93                   2910.000       0.707107      q
 q94                   3040.000       0.707107      q
 q95                   2970.000       0.707107      q
 q96                   2940.000       0.707107      q
 q97                   2970.000       0.707107      q
 q98                   2870.000       0.707107      q
 q99                   2890.000       0.707107      q
 q100                  2870.000       0.707107      q
 q101                  2820.000       0.707107      q
 q102                  2770.000       0.707107      q
 q103                  2780.000       0.707107      q
 q104                  3050.000       0.707107      q
 q105                  3680.000       0.707107      q
 q106                  3750.000       0.707107      q
 q107                  3560.000       0.707107      q
 q108                  3570.000       0.707107      q
 q109                  3480.000       0.707107      q
 q110                  3320.000       0.707107      q
 q111                  3260.000       0.707107      q
 q112                  3210.000       0.707107      q
 q113                  3120.000       0.707107      q
 q114                  3150.000       0.707107      q
 q115                  3140.000       0.707107      q
 q116                  3070.000       0.707107      q
 q117                  3140.000       0.707107      q
 q118                  3150.000       0.707107      q
 q119                  3110.000       0.707107      q
 q120                  3150.000       0.707107      q
 q121                  3130.000       0.707107      q
 q122                  3210.000       0.707107      q
 q123                  2950.000       0.707107      q
 q124                  2730.000       0.707107      q
 q125                  2590.000       0.707107      q
 q126                  2560.000       0.707107      q
 q127                  2540.000       0.707107      q
 q128                  2490.000       0.707107      q
 q129                  2460.000       0.707107      q
 q130                  2430.000       0.707107      q
 q131                  2380.000       0.707107      q
 q132                  2360.000       0.707107      q
 q133                  2440.000       0.707107      q
 q134                  3000.000       0.707107      q
 q135                  3560.000       0.707107      q
 q136                  3140.000       0.707107      q
 q137                  3090.000       0.707107      q
 q138                  3100.000       0.707107      q
 q139                  2970.000       0.707107      q
 q140                  2820.000       0.707107      q
 q141                  2780.000       0.707107      q
 q142                  2800.000       0.707107      q
 q143                  2700.000       0.707107      q
 q144                  2670.000       0.707107      q
 q145                  2640.000       0.707107      q
 q146                  2580.000       0.707107      q
 q147                  2660.000       0.707107      q
 q148                  2560.000       0.707107      q
 q149                  2540.000       0.707107      q
 q150                  2560.000       0.707107      q
 q151                  2520.000       0.707107      q
 q152                  2630.000       0.707107      q
 q153                  2690.000       0.707107      q
 q154                  2850.000       0.707107      q
 q155                  2830.000       0.707107      q
 q156                  2820.000       0.707107      q
 q157                  2720.000       0.707107      q
 q158                  2640.000       0.707107      q
 q159                  2600.000       0.707107      q
 q160                  2540.000       0.707107      q
 q161                  2780.000       0.707107      q
 q162                  2590.000       0.707107      q
 q163                  2690.000       0.707107      q
 q164                  2790.000       0.707107      q
 q165                  2620.000       0.707107      q
 q166                  4260.000       0.707107      q
 q167                  3070.000       0.707107      q
 q168                  2920.000       0.707107      q
 q169                  3290.000       0.707107      q
 q170                  3330.000       0.707107      q
 q171                  3430.000       0.707107      q
 q172                  3580.000       0.707107      q
 q173                  3460.000       0.707107      q
 q174                  3420.000       0.707107      q
 q175                  3610.000       0.707107      q
 q176                  3120.000       0.707107      q
 q177                  3270.000       0.707107      q
 q178                  3840.000       0.707107      q
 q179                  3930.000       0.707107      q
 q180                  3110.000       0.707107      q
 q181                  4900.000       0.707107      q
 q182                  4770.000       0.707107      q
 q183                  5880.000       0.707107      q
 q184                  4440.000       0.707107      q
 q185                  4150.000       0.707107      q
 q186                  4570.000       0.707107      q
 q187                  4510.000       0.707107      q
 q188                  4400.000       0.707107      q
 q189                  4460.000       0.707107      q
 q190                  4450.000       0.707107      q
 q191                  4360.000       0.707107      q
 q192                  4180.000       0.707107      q
 q193                  3960.000       0.707107      q
 q194                  3930.000       0.707107      q
 q195                  3960.000       0.707107      q
 q196                  3960.000       0.707107      q
 q197                  3980.000       0.707107      q
 q198                  4100.000       0.707107      q
 q199                  4240.000       0.707107      q
 q200                  4250.000       0.707107      q
 q201                  4270.000       0.707107      q
 q202                  4330.000       0.707107      q
 q203                  4470.000       0.707107      q
 q204                  4300.000       0.707107      q
 q205                  4330.000       0.707107      q
 q206                  4240.000       0.707107      q
 q207                  4230.000       0.707107      q
 q208                  4200.000       0.707107      q
 q209                  4400.000       0.707107      q
 q210                  4720.000       0.707107      q
 q211                  4920.000       0.707107      q
 q212                  4630.000       0.707107      q
 q213                  4550.000       0.707107      q
 q214                  5470.000       0.707107      q
 q215                  5390.000       0.707107      q
 q216                  5290.000       0.707107      q
 q217                  5510.000       0.707107      q
 q218                  5210.000       0.707107      q
 q219                  4900.000       0.707107      q
 q220                  5540.000       0.707107      q
 q221                  5730.000       0.707107      q
 q222                  5860.000       0.707107      q
 q223                  6110.000       0.707107      q
 q224                  5980.000       0.707107      q
 q225                  6020.000       0.707107      q
 q226                  5870.000       0.707107      q
 q227                  5570.000       0.707107      q
 q228                  5070.000       0.707107      q
 q229                  4790.000       0.707107      q
 q230                  4640.000       0.707107      q
 q231                  4580.000       0.707107      q
 q232                  5840.000       0.707107      q
 q233                  6150.000       0.707107      q
 q234                  6260.000       0.707107      q
 q235                  5930.000       0.707107      q
 q236                  5960.000       0.707107      q
 q237                  5930.000       0.707107      q
 q238                  5680.000       0.707107      q
 q239                  5140.000       0.707107      q
 q240                  4840.000       0.707107      q
 q241                  4700.000       0.707107      q
 q242                  4490.000       0.707107      q
 q243                  4440.000       0.707107      q
 q244                  4410.000       0.707107      q
 q245                  4350.000       0.707107      q
 q246                  4370.000       0.707107      q
 q247                  5250.000       0.707107      q
 q248                  5270.000       0.707107      q
 q249                  5210.000       0.707107      q
 q250                  5320.000       0.707107      q
 q251                  5350.000       0.707107      q
 q252                  5220.000       0.707107      q
 q253                  5040.000       0.707107      q
 q254                  5360.000       0.707107      q
 q255                  5340.000       0.707107      q
 q256                  5590.000       0.707107      q
 q257                  5900.000       0.707107      q
 q258                  5860.000       0.707107      q
 q259                  5980.000       0.707107      q
 q260                  6450.000       0.707107      q
 q261                  6740.000       0.707107      q
 q262                  6510.000       0.707107      q
 q263                  6960.000       0.707107      q
 q264                  7660.000       0.707107      q
 q265                  7070.000       0.707107      q
 q266                  8050.000       0.707107      q
 q267                  10600.00       0.707107      q
 q268                  9760.000       0.707107      q
 q269                  10100.00       0.707107      q
 q270                  11100.00       0.707107      q
 q271                  12500.00       0.707107      q
 q272                  14000.00       0.707107      q
 q273                  14500.00       0.707107      q
 q274                  15100.00       0.707107      q
 q275                  15900.00       0.707107      q
 q276                  16200.00       0.707107      q
 q277                  14100.00       0.707107      q
 q278                  13100.00       0.707107      q
 q279                  13500.00       0.707107      q
 q280                  15400.00       0.707107      q
 q281                  17700.00       0.707107      q
 q282                  19200.00       0.707107      q
 q283                  18000.00       0.707107      q
 q284                  17400.00       0.707107      q
 q285                  17200.00       0.707107      q
 q286                  17600.00       0.707107      q
 q287                  18600.00       0.707107      q
 q288                  20700.00       0.707107      q
 q289                  23300.00       0.707107      q
 q290                  24000.00       0.707107      q
 q291                  25900.00       0.707107      q
 q292                  28200.00       0.707107      q
 q293                  31200.00       0.707107      q
 q294                  34300.00       0.707107      q
 q295                  38000.00       0.707107      q
 q296                  37000.00       0.707107      q
 q297                  37200.00       0.707107      q
 q298                  35400.00       0.707107      q
 q299                  31400.00       0.707107      q
 q300                  27100.00       0.707107      q
 q301                  29000.00       0.707107      q
 q302                  35800.00       0.707107      q
 q303                  38600.00       0.707107      q
 q304                  37200.00       0.707107      q
 q305                  35000.00       0.707107      q
 q306                  30200.00       0.707107      q
 q307                  28500.00       0.707107      q
 q308                  26600.00       0.707107      q
 q309                  24800.00       0.707107      q
 q310                  22100.00       0.707107      q
 q311                  20500.00       0.707107      q
 q312                  18500.00       0.707107      q
 q313                  17600.00       0.707107      q
 q314                  16600.00       0.707107      q
 q315                  17000.00       0.707107      q
 q316                  15800.00       0.707107      q
 q317                  16200.00       0.707107      q
 q318                  15900.00       0.707107      q
 q319                  16200.00       0.707107      q
 q320                  18600.00       0.707107      q
 q321                  22700.00       0.707107      q
 q322                  31100.00       0.707107      q
 q323                  41200.00       0.707107      q
 q324                  43500.00       0.707107      q
 q325                  41800.00       0.707107      q
 q326                  44000.00       0.707107      q
 q327                  45200.00       0.707107      q
 q328                  45800.00       0.707107      q
 q329                  46500.00       0.707107      q
 q330                  46400.00       0.707107      q
 q331                  49100.00       0.707107      q
 q332                  49900.00       0.707107      q
 q333                  51700.00       0.707107      q
 q334                  49400.00       0.707107      q
 q335                  46800.00       0.707107      q
 q336                  42900.00       0.707107      q
 q337                  41500.00       0.707107      q
 q338                  38400.00       0.707107      q
 q339                  34900.00       0.707107      q
 q340                  34800.00       0.707107      q
 q341                  38800.00       0.707107      q
 q342                  38200.00       0.707107      q
 q343                  30200.00       0.707107      q
 q344                  33300.00       0.707107      q
 q345                  36400.00       0.707107      q
 q346                  33200.00       0.707107      q
 q347                  32500.00       0.707107      q
 q348                  29400.00       0.707107      q
 q349                  27200.00       0.707107      q
 q350                  27000.00       0.707107      q
 q351                  24000.00       0.707107      q
 q352                  27000.00       0.707107      q
 q353                  27800.00       0.707107      q
 q354                  28000.00       0.707107      q
 q355                  29200.00       0.707107      q
 q356                  23800.00       0.707107      q
 q357                  21600.00       0.707107      q
 q358                  20200.00       0.707107      q
 q359                  19400.00       0.707107      q
 q360                  18700.00       0.707107      q
 q361                  17100.00       0.707107      q
 q362                  15900.00       0.707107      q
 q363                  15700.00       0.707107      q
 q364                  15200.00       0.707107      q
 q365                  15100.00       0.707107      q
 q366                  14700.00       0.707107      q
 q367                  14600.00       0.707107      q
 q368                  14400.00       0.707107      q
 q369                  14000.00       0.707107      q
 q370                  13500.00       0.707107      q
 q371                  13300.00       0.707107      q
 q372                  13300.00       0.707107      q
 q373                  13200.00       0.707107      q
 q374                  12300.00       0.707107      q
 q375                  11800.00       0.707107      q
 q376                  11300.00       0.707107      q
 q377                  11000.00       0.707107      q
 q378                  11000.00       0.707107      q
 q379                  10800.00       0.707107      q
 q380                  10500.00       0.707107      q
 q381                  10300.00       0.707107      q
 q382                  10500.00       0.707107      q
 q383                  10100.00       0.707107      q
 q384                  9840.000       0.707107      q
 q385                  9480.000       0.707107      q
 q386                  9390.000       0.707107      q
 q387                  9320.000       0.707107      q
 q388                  9170.000       0.707107      q
 q389                  8980.000       0.707107      q
 q390                  8700.000       0.707107      q
 q391                  8310.000       0.707107      q
 q392                  8420.000       0.707107      q
 q393                  8150.000       0.707107      q
 q394                  7960.000       0.707107      q
 q395                  7820.000       0.707107      q
 q396                  7450.000       0.707107      q
 q397                  7500.000       0.707107      q
 q398                  7240.000       0.707107      q
 q399                  7090.000       0.707107      q
 q400                  7070.000       0.707107      q
 q401                  6970.000       0.707107      q
 q402                  6660.000       0.707107      q
 q403                  6440.000       0.707107      q
 q404                  6240.000       0.707107      q
 q405                  6070.000       0.707107      q
 q406                  5970.000       0.707107      q
 q407                  5680.000       0.707107      q
 q408                  5430.000       0.707107      q
 q409                  5400.000       0.707107      q
 q410                  5390.000       0.707107      q
 q411                  5300.000       0.707107      q
 q412                  5240.000       0.707107      q
 q413                  5230.000       0.707107      q
 q414                  6450.000       0.707107      q
 q415                  5670.000       0.707107      q
 q416                  5160.000       0.707107      q
 q417                  4990.000       0.707107      q
 q418                  5020.000       0.707107      q
 q419                  4980.000       0.707107      q
 q420                  5020.000       0.707107      q
 q421                  4920.000       0.707107      q
 q422                  4840.000       0.707107      q
 q423                  4850.000       0.707107      q
 q424                  4850.000       0.707107      q
 q425                  4820.000       0.707107      q
 q426                  4830.000       0.707107      q
 q427                  4770.000       0.707107      q
 q428                  4710.000       0.707107      q
 q429                  4700.000       0.707107      q
 q430                  4670.000       0.707107      q
 q431                  4650.000       0.707107      q
 q432                  4590.000       0.707107      q
 q433                  4560.000       0.707107      q
 q434                  4550.000       0.707107      q
 q435                  4570.000       0.707107      q
 q436                  4500.000       0.707107      q
 q437                  4490.000       0.707107      q
 q438                  4490.000       0.707107      q
 q439                  4480.000       0.707107      q
 q440                  4480.000       0.707107      q
 q441                  4460.000       0.707107      q
 q442                  4510.000       0.707107      q
 q443                  4500.000       0.707107      q
 q444                  4510.000       0.707107      q
 q445                  4530.000       0.707107      q
 q446                  4660.000       0.707107      q
 q447                  4770.000       0.707107      q
 q448                  4750.000       0.707107      q
 q449                  4610.000       0.707107      q
 q450                  4550.000       0.707107      q
 q451                  4480.000       0.707107      q
 q452                  4480.000       0.707107      q
 q453                  4460.000       0.707107      q
 q454                  4430.000       0.707107      q
 q455                  4390.000       0.707107      q
 q456                  4460.000       0.707107      q
 q457                  4380.000       0.707107      q
 q458                  4370.000       0.707107      q
 q459                  4360.000       0.707107      q
 q460                  4380.000       0.707107      q
 q461                  4390.000       0.707107      q
 q462                  4390.000       0.707107      q
 q463                  4350.000       0.707107      q
 q464                  4270.000       0.707107      q
 q465                  4230.000       0.707107      q
 q466                  4190.000       0.707107      q
 q467                  4190.000       0.707107      q
 q468                  4160.000       0.707107      q
 q469                  4260.000       0.707107      q
 q470                  4400.000       0.707107      q
 q471                  4250.000       0.707107      q
 q472                  4190.000       0.707107      q
 q473                  4180.000       0.707107      q