pcf
* control data
restart estimation
52    12758      20       0       2
2    2 single point   1   0   0
10.0  -3  0.3  0.03  10  lamforgive derforgive
10.0  10.0  0.001
0.1  noaui
   55  0.001  5  5  0.001  5
1  1  1  PARSAVEITN
* singular value decomposition
1
52 5E-06
1
* parameter groups
ddsd         relative 0.025  0.0  switch  2.0 parabolic 1.0e-4 0.5 smaller
ddsw         relative 0.025  0.0  switch  2.0 parabolic 1.0e-4 0.5 smaller
ddgd         relative 0.025  0.0  switch  2.0 parabolic 1.0e-4 0.5 smaller
ddgw         relative 0.025  0.0  switch  2.0 parabolic 1.0e-4 0.5 smaller
rcsd         relative 0.025  0.0  switch  2.0 parabolic 1.0e-4 0.5 smaller
rcsw         relative 0.025  0.0  switch  2.0 parabolic 1.0e-4 0.5 smaller
rcrd         relative 0.025  0.0  switch  2.0 parabolic 1.0e-4 0.5 smaller
rcrw         relative 0.025  0.0  switch  2.0 parabolic 1.0e-4 0.5 smaller
rcgd         relative 0.025  0.0  switch  2.0 parabolic 1.0e-4 0.5 smaller
rcgw         relative 0.025  0.0  switch  2.0 parabolic 1.0e-4 0.5 smaller
tl           relative 0.025  0.0  switch  2.0 parabolic 1.0e-4 0.5 smaller
xw           relative 0.025  0.0  switch  2.0 parabolic 1.0e-4 0.5 smaller
yw           relative 0.03  0.0  switch  2.0 parabolic 1.0e-4 0.5 smaller
x           relative 0.025  0.0  switch  2.0 parabolic 1.0e-4 0.5 smaller
y            relative 0.025  0.0  switch  2.0 parabolic 1.0e-4 0.5 smaller
tlr			 relative 0.5  0.0  switch  2.0 parabolic 1.0e-4 0.5 smaller
tls			 relative 0.5  0.0  switch  2.0 parabolic 1.0e-4 0.5 smaller
beta			 relative 0.025  0.0  switch  2.0 parabolic 1.0e-4 0.5 smaller
alpha			 relative 0.025  0.0  switch  2.0 parabolic 1.0e-4 0.5 smaller
tcrit			 relative 0.025  0.0  switch  2.0 parabolic 1.0e-4 0.5 smaller
* parameter data
ddsd	log	factor   0.2871300      1.00e-01	2.1	ddsd	1	0	1
ddsw	log	factor   0.2301400      1.00e-01	2.1	ddsw	1	0	1
ddgd	log	factor    0.9      1.00e-08	2.1	ddgd	1	0	1
ddgw	log	factor   0.1877398      1.00e-08	2.1	ddgw	1	0	1
rcs1d	log	factor    0.9      1.00e-08	2	rcsd	1	0	1
rcs1w	log	factor    0.9      1.00e-08	2	rcsw	1	0	1
rcs2d	log	factor    0.9      1.00e-08	2	rcsd	1	0	1
rcs2w	log	factor    0.9      1.00e-08	2	rcsw	1	0	1
rcs3d	log	factor   1.1237974E-02  1.00e-08	1	rcsd	1	0	1
rcs3w	log	factor   0.7095428      1.00e-08	1	rcsw	1	0	1
rcs4d	log	factor   1.7027849E-03  1.00e-08	1	rcsd	1	0	1
rcs4w	log	factor   1.9900724E-03  1.00e-08	1	rcsw	1	0	1
rcs5d	log	factor   0.9046437      1.00e-08	1	rcsd	1	0	1
rcs5w	log	factor    0.9      1.00e-08	1	rcsw	1	0	1
rcs6d	log	factor   2.2004121E-02  1.00e-08	1	rcsd	1	0	1
rcs6w	log	factor    0.9      1.00e-08	1	rcsw	1	0	1
rcs7d	log	factor   4.9404009E-03  1.00e-08	1	rcsd	1	0	1
rcs7w	log	factor    0.9      1.00e-08	1	rcsw	1	0	1
rcs8d	log	factor   4.9404009E-03  1.00e-08	1	rcsd	1	0	1
rcs8w	log	factor    0.9      1.00e-08	1	rcsw	1	0	1
rcs9d	log	factor   4.9404009E-03  1.00e-08	1	rcsd	1	0	1
rcs9w	log	factor    0.9      1.00e-08	1	rcsw	1	0	1
rcr1d	log	factor   0.9e-04      1.00e-08	1	rcrd	1	0	1
rcr1w	log	factor    0.00001      1.00e-08	1	rcrw	1	0	1
rcr2d	log	factor   0.1036747e-03      1.00e-08	1	rcrd	1	0	1
rcr2w	log	factor   1.0352389E-03  1.00e-08	1	rcrw	1	0	1
rcr3d	log	factor   3.9041752E-03  1.00e-08	1	rcrd	1	0	1
rcr3w	log	factor   5.2697620E-04  1.00e-08	1	rcrw	1	0	1
rcr4d	log	factor   1.6609191E-03  1.00e-08	1	rcrd	1	0	1
rcr4w	log	factor   1.3732826E-03  1.00e-08	1	rcrw	1	0	1
rcr5d	log	factor   3.3200859E-03  1.00e-08	1	rcrd	1	0	1
rcr5w	log	factor   5.2041455E-04  1.00e-08	1	rcrw	1	0	1
rcr6d	log	factor   1.2448492E-03  1.00e-08	1	rcrd	1	0	1
rcr6w	log	factor   2.8207164E-03  1.00e-08	1	rcrw	1	0	1
rcr7d	log	factor   1.1699713E-03  1.00e-08	1	rcrd	1	0	1
rcr7w	log	factor   1.2453562E-03  1.00e-08	1	rcrw	1	0	1
rcr8d	log	factor   1.1699713E-03  1.00e-08	1	rcrd	1	0	1
rcr8w	log	factor   1.2453562E-03  1.00e-08	1	rcrw	1	0	1
rcr9d	log	factor   1.1699713E-03  1.00e-08	1	rcrd	1	0	1
rcr9w	log	factor   1.2453562E-03  1.00e-08	1	rcrw	1	0	1
rcgd	log	factor   3.9814516E-03  1.00e-08	2	rcgd	1	0	1
rcgw	log	factor   0.8919134      1.00e-08	2	rcgw	1	0	1
tl	log	factor    2.000000      1.00e-08	5	tl	1	0	1
xw	log	factor   1.9523951      1.00e-08	2.1	xw	1	0	1
yw	log	factor   2.5432844E-01  1.00e-08	1	yw	1	0	1
x	log	factor    1.156447      1.00e-08	2.3	x	1	0	1
y	log	factor   2.8469426E-01  1.00e-08	1	y	1	0	1
tlr	log	factor   6.8200000E-02  1.00e-08	10	tlr	1	0	1
tls	log	factor   0.2220000      1.00e-08	30	tls	1	0	1
beta	log	factor   0.3000000      1.00e-01	4e-01	beta	1	0	1
alpha	log	factor   0.8900000      6.00e-01	9.9e-01	alpha	1	0	1
tcrit	log	factor   7.4800000E-04  1.00e-05	2	tcrit	1	0	1
* observation groups
q
swe
* observation data
q1	4890	0	q
q2	4830	0	q
q3	4790	0	q
q4	4740	0	q
q5	4690	0	q
q6	4640	0	q
q7	4600	0	q
q8	4540	0	q
q9	4450	0	q
q10	4370	0	q
q11	4350	0	q
q12	4330	0	q
q13	4320	0	q
q14	4300	0	q
q15	4260	0	q
q16	4290	0	q
q17	4240	0	q
q18	4180	0	q
q19	4210	0	q
q20	4170	0	q
q21	4170	0	q
q22	4190	0	q
q23	4120	0	q
q24	4100	0	q
q25	4100	0	q
q26	4040	0	q
q27	4010	0	q
q28	4020	0	q
q29	4050	0	q
q30	4130	0	q
q31	4070	0	q
q32	4020	0	q
q33	4090	0	q
q34	4030	0	q
q35	4100	0	q
q36	4040	0	q
q37	4010	0	q
q38	3790	0	q
q39	3800	0	q
q40	3820	0	q
q41	3770	0	q
q42	3640	0	q
q43	3670	0	q
q44	3710	0	q
q45	3660	0	q
q46	3470	0	q
q47	3530	0	q
q48	3490	0	q
q49	3400	0	q
q50	3490	0	q
q51	3460	0	q
q52	3470	0	q
q53	3590	0	q
q54	3480	0	q
q55	3360	0	q
q56	3290	0	q
q57	3450	0	q
q58	3410	0	q
q59	3280	0	q
q60	3310	0	q
q61	3320	0	q
q62	3610	0	q
q63	3550	0	q
q64	3530	0	q
q65	3540	0	q
q66	3470	0	q
q67	3390	0	q
q68	3390	0	q
q69	3380	0	q
q70	3760	0	q
q71	3800	0	q
q72	3640	0	q
q73	3570	0	q
q74	3560	0	q
q75	3360	0	q
q76	3360	0	q
q77	3290	0	q
q78	3240	0	q
q79	3130	0	q
q80	3240	0	q
q81	3140	0	q
q82	2960	0	q
q83	2960	0	q
q84	2970	0	q
q85	2960	0	q
q86	2930	0	q
q87	3050	0	q
q88	2890	0	q
q89	2830	0	q
q90	2780	0	q
q91	2830	0	q
q92	2860	0	q
q93	2910	0	q
q94	3040	0	q
q95	2970	0	q
q96	2940	0	q
q97	2970	0	q
q98	2870	0	q
q99	2890	0	q
q100	2870	0	q
q101	2820	1	q
q102	2770	1	q
q103	2780	1	q
q104	3050	1	q
q105	3680	1	q
q106	3750	1	q
q107	3560	1	q
q108	3570	1	q
q109	3480	1	q
q110	3320	1	q
q111	3260	1	q
q112	3210	1	q
q113	3120	1	q
q114	3150	1	q
q115	3140	1	q
q116	3070	1	q
q117	3140	1	q
q118	3150	1	q
q119	3110	1	q
q120	3150	1	q
q121	3130	1	q
q122	3210	1	q
q123	2950	1	q
q124	2730	1	q
q125	2590	1	q
q126	2560	1	q
q127	2540	1	q
q128	2490	1	q
q129	2460	1	q
q130	2430	1	q
q131	2380	1	q
q132	2360	1	q
q133	2440	1	q
q134	3000	1	q
q135	3560	1	q
q136	3140	1	q
q137	3090	1	q
q138	3100	1	q
q139	2970	1	q
q140	2820	1	q
q141	2780	1	q
q142	2800	1	q
q143	2700	1	q
q144	2670	1	q
q145	2640	1	q
q146	2580	1	q
q147	2660	1	q
q148	2560	1	q
q149	2540	1	q
q150	2560	1	q
q151	2520	1	q
q152	2630	1	q
q153	2690	1	q
q154	2850	1	q
q155	2830	1	q
q156	2820	1	q
q157	2720	1	q
q158	2640	1	q
q159	2600	1	q
q160	2540	1	q
q161	2780	1	q
q162	2590	1	q
q163	2690	1	q
q164	2790	1	q
q165	2620	1	q
q166	4260	0.1	q
q167	3070	1	q
q168	2920	1	q
q169	3290	1	q
q170	3330	1	q
q171	3430	1	q
q172	3580	1	q
q173	3460	1	q
q174	3420	1	q
q175	3610	1	q
q176	3120	1	q
q177	3270	1	q
q178	3840	1	q
q179	3930	1	q
q180	3110	1	q
q181	4900	0.1	q
q182	4770	0.1	q
q183	5880	0.1	q
q184	4440	0.1	q
q185	4150	1	q
q186	4570	0.1	q
q187	4510	0.1	q
q188	4400	0.1	q
q189	4460	0.1	q
q190	4450	0.1	q
q191	4360	0.1	q
q192	4180	1	q
q193	3960	1	q
q194	3930	1	q
q195	3960	1	q
q196	3960	1	q
q197	3980	1	q
q198	4100	1	q
q199	4240	0.1	q
q200	4250	0.1	q
q201	4270	0.1	q
q202	4330	0.1	q
q203	4470	0.1	q
q204	4300	0.1	q
q205	4330	0.1	q
q206	4240	0.1	q
q207	4230	0.1	q
q208	4200	1	q
q209	4400	0.1	q
q210	4720	0.1	q
q211	4920	0.1	q
q212	4630	0.1	q
q213	4550	0.1	q
q214	5470	0.1	q
q215	5390	0.1	q
q216	5290	0.1	q
q217	5510	0.1	q
q218	5210	0.1	q
q219	4900	0.1	q
q220	5540	0.1	q
q221	5730	0.1	q
q222	5860	0.1	q
q223	6110	0.1	q
q224	5980	0.1	q
q225	6020	0.1	q
q226	5870	0.1	q
q227	5570	0.1	q
q228	5070	0.1	q
q229	4790	0.1	q
q230	4640	0.1	q
q231	4580	0.1	q
q232	5840	0.1	q
q233	6150	0.1	q
q234	6260	0.1	q
q235	5930	0.1	q
q236	5960	0.1	q
q237	5930	0.1	q
q238	5680	0.1	q
q239	5140	0.1	q
q240	4840	0.1	q
q241	4700	0.1	q
q242	4490	0.1	q
q243	4440	0.1	q
q244	4410	0.1	q
q245	4350	0.1	q
q246	4370	0.1	q
q247	5250	0.1	q
q248	5270	0.1	q
q249	5210	0.1	q
q250	5320	0.1	q
q251	5350	0.1	q
q252	5220	0.1	q
q253	5040	0.1	q
q254	5360	0.1	q
q255	5340	0.1	q
q256	5590	0.1	q
q257	5900	0.1	q
q258	5860	0.1	q
q259	5980	0.1	q
q260	6450	0.1	q
q261	6740	0.1	q
q262	6510	0.1	q
q263	6960	0.1	q
q264	7660	0.1	q
q265	7070	0.1	q
q266	8050	0.1	q
q267	10600	0.1	q
q268	9760	0.1	q
q269	10100	0.1	q
q270	11100	0.1	q
q271	12500	0.1	q
q272	14000	0.1	q
q273	14500	0.1	q
q274	15100	0.1	q
q275	15900	0.1	q
q276	16200	0.1	q
q277	14100	0.1	q
q278	13100	0.1	q
q279	13500	0.1	q
q280	15400	0.1	q
q281	17700	0.1	q
q282	19200	0.1	q
q283	18000	0.1	q
q284	17400	0.1	q
q285	17200	0.1	q
q286	17600	0.1	q
q287	18600	0.1	q
q288	20700	0.1	q
q289	23300	0.1	q
q290	24000	0.1	q
q291	25900	0.1	q
q292	28200	0.1	q
q293	31200	0.1	q
q294	34300	0.1	q
q295	38000	0.1	q
q296	37000	0.1	q
q297	37200	0.1	q
q298	35400	0.1	q
q299	31400	0.1	q
q300	27100	0.1	q
q301	29000	0.1	q
q302	35800	0.1	q
q303	38600	0.1	q
q304	37200	0.1	q
q305	35000	0.1	q
q306	30200	0.1	q
q307	28500	0.1	q
q308	26600	0.1	q
q309	24800	0.1	q
q310	22100	0.1	q
q311	20500	0.1	q
q312	18500	0.1	q
q313	17600	0.1	q
q314	16600	0.1	q
q315	17000	0.1	q
q316	15800	0.1	q
q317	16200	0.1	q
q318	15900	0.1	q
q319	16200	0.1	q
q320	18600	0.1	q
q321	22700	0.1	q
q322	31100	0.1	q
q323	41200	0.1	q
q324	43500	0.1	q
q325	41800	0.1	q
q326	44000	0.1	q
q327	45200	0.1	q
q328	45800	0.1	q
q329	46500	0.1	q
q330	46400	0.1	q
q331	49100	0.1	q
q332	49900	0.1	q
q333	51700	0.1	q
q334	49400	0.1	q
q335	46800	0.1	q
q336	42900	0.1	q
q337	41500	0.1	q
q338	38400	0.1	q
q339	34900	0.1	q
q340	34800	0.1	q
q341	38800	0.1	q
q342	38200	0.1	q
q343	30200	0.1	q
q344	33300	0.1	q
q345	36400	0.1	q
q346	33200	0.1	q
q347	32500	0.1	q
q348	29400	0.1	q
q349	27200	0.1	q
q350	27000	0.1	q
q351	24000	0.1	q
q352	27000	0.1	q
q353	27800	0.1	q
q354	28000	0.1	q
q355	29200	0.1	q
q356	23800	0.1	q
q357	21600	0.1	q
q358	20200	0.1	q
q359	19400	0.1	q
q360	18700	0.1	q
q361	17100	0.1	q
q362	15900	0.1	q
q363	15700	0.1	q
q364	15200	0.1	q
q365	15100	0.1	q
q366	14700	0.1	q
q367	14600	0.1	q
q368	14400	0.1	q
q369	14000	0.1	q
q370	13500	0.1	q
q371	13300	0.1	q
q372	13300	0.1	q
q373	13200	0.1	q
q374	12300	0.1	q
q375	11800	0.1	q
q376	11300	0.1	q
q377	11000	0.1	q
q378	11000	0.1	q
q379	10800	0.1	q
q380	10500	0.1	q
q381	10300	0.1	q
q382	10500	0.1	q
q383	10100	0.1	q
q384	9840	0.1	q
q385	9480	0.1	q
q386	9390	0.1	q
q387	9320	0.1	q
q388	9170	0.1	q
q389	8980	0.1	q
q390	8700	0.1	q
q391	8310	0.1	q
q392	8420	0.1	q
q393	8150	0.1	q
q394	7960	0.1	q
q395	7820	0.1	q
q396	7450	0.1	q
q397	7500	0.1	q
q398	7240	0.1	q
q399	7090	0.1	q
q400	7070	0.1	q
q401	6970	0.1	q
q402	6660	0.1	q
q403	6440	0.1	q
q404	6240	0.1	q
q405	6070	0.1	q
q406	5970	0.1	q
q407	5680	0.1	q
q408	5430	0.1	q
q409	5400	0.1	q
q410	5390	0.1	q
q411	5300	0.1	q
q412	5240	0.1	q
q413	5230	0.1	q
q414	6450	0.1	q
q415	5670	0.1	q
q416	5160	0.1	q
q417	4990	0.1	q
q418	5020	0.1	q
q419	4980	0.1	q
q420	5020	0.1	q
q421	4920	0.1	q
q422	4840	0.1	q
q423	4850	0.1	q
q424	4850	0.1	q
q425	4820	0.1	q
q426	4830	0.1	q
q427	4770	0.1	q
q428	4710	0.1	q
q429	4700	0.1	q
q430	4670	0.1	q
q431	4650	0.1	q
q432	4590	0.1	q
q433	4560	0.1	q
q434	4550	0.1	q
q435	4570	0.1	q
q436	4500	0.1	q
q437	4490	0.1	q
q438	4490	0.1	q
q439	4480	0.1	q
q440	4480	0.1	q
q441	4460	0.1	q
q442	4510	0.1	q
q443	4500	0.1	q
q444	4510	0.1	q
q445	4530	0.1	q
q446	4660	0.1	q
q447	4770	0.1	q
q448	4750	0.1	q
q449	4610	0.1	q
q450	4550	0.1	q
q451	4480	0.1	q
q452	4480	0.1	q
q453	4460	0.1	q
q454	4430	0.1	q
q455	4390	0.1	q
q456	4460	0.1	q
q457	4380	0.1	q
q458	4370	0.1	q
q459	4360	0.1	q
q460	4380	0.1	q
q461	4390	0.1	q
q462	4390	0.1	q
q463	4350	0.1	q
q464	4270	0.1	q
q465	4230	0.1	q
q466	4190	1	q
q467	4190	1	q
q468	4160	1	q
q469	4260	0.1	q
q470	4400	0.1	q
q471	4250	0.1	q
q472	4190	1	q
q473	4180	1	q
q474	4190	1	q
q475	4190	1	q
q476	4150	1	q
q477	4140	1	q
q478	4250	0.1	q
q479	4170	1	q
q480	4270	0.1	q
q481	4370	0.1	q
q482	4330	0.1	q
q483	4240	0.1	q
q484	4230	0.1	q
q485	4110	1	q
q486	4050	1	q
q487	4200	1	q
q488	4170	1	q
q489	4190	1	q
q490	4160	1	q
q491	4170	1	q
q492	4210	1	q
q493	4170	1	q
q494	4070	1	q
q495	4160	1	q
q496	3920	1	q
q497	3890	1	q
q498	3980	1	q
q499	4120	1	q
q500	4120	1	q
q501	4350	0.1	q
q502	4230	0.1	q
q503	4530	0.1	q
q504	4380	0.1	q
q505	4280	0.1	q
q506	4480	0.1	q
q507	4380	0.1	q
q508	4160	1	q
q509	4230	0.1	q
q510	4220	0.1	q
q511	4200	1	q
q512	4210	1	q
q513	4210	1	q
q514	4210	1	q
q515	4190	1	q
q516	4180	1	q
q517	4180	1	q
q518	3990	1	q
q519	4190	1	q
q520	4110	1	q
q521	3950	1	q
q522	4110	1	q
q523	4060	1	q
q524	3970	1	q
q525	3970	1	q
q526	3850	1	q
q527	3840	1	q
q528	3940	1	q
q529	3850	1	q
q530	3890	1	q
q531	3910	1	q
q532	3740	1	q
q533	3580	1	q
q534	3500	1	q
q535	3420	1	q
q536	3470	1	q
q537	3620	1	q
q538	3750	1	q
q539	3610	1	q
q540	3720	1	q
q541	3460	1	q
q542	3570	1	q
q543	3700	1	q
q544	3600	1	q
q545	3420	1	q
q546	3480	1	q
q547	3570	1	q
q548	3520	1	q
q549	3470	1	q
q550	3520	1	q
q551	3430	1	q
q552	3360	1	q
q553	3320	1	q
q554	3380	1	q
q555	3500	1	q
q556	3500	1	q
q557	3720	1	q
q558	3440	1	q
q559	3590	1	q
q560	3490	1	q
q561	3510	1	q
q562	3500	1	q
q563	3410	1	q
q564	3780	1	q
q565	4320	0.1	q
q566	22800	0.1	q
q567	6250	0.1	q
q568	4840	0.1	q
q569	6080	0.1	q
q570	6390	0.1	q
q571	5870	0.1	q
q572	5610	0.1	q
q573	5340	0.1	q
q574	5330	0.1	q
q575	5520	0.1	q
q576	5550	0.1	q
q577	10500	0.1	q
q578	8860	0.1	q
q579	7590	0.1	q
q580	7520	0.1	q
q581	7730	0.1	q
q582	7890	0.1	q
q583	7680	0.1	q
q584	7420	0.1	q
q585	6940	0.1	q
q586	7030	0.1	q
q587	7470	0.1	q
q588	7960	0.1	q
q589	8700	0.1	q
q590	8670	0.1	q
q591	8310	0.1	q
q592	8140	0.1	q
q593	7710	0.1	q
q594	7420	0.1	q
q595	7040	0.1	q
q596	7000	0.1	q
q597	6780	0.1	q
q598	6980	0.1	q
q599	8000	0.1	q
q600	9040	0.1	q
q601	9870	0.1	q
q602	10500	0.1	q
q603	9600	0.1	q
q604	9950	0.1	q
q605	9190	0.1	q
q606	9410	0.1	q
q607	9840	0.1	q
q608	10000	0.1	q
q609	10100	0.1	q
q610	9780	0.1	q
q611	9700	0.1	q
q612	9200	0.1	q
q613	9060	0.1	q
q614	9210	0.1	q
q615	9270	0.1	q
q616	9220	0.1	q
q617	9480	0.1	q
q618	9700	0.1	q
q619	9870	0.1	q
q620	10500	0.1	q
q621	10800	0.1	q
q622	10700	0.1	q
q623	10600	0.1	q
q624	10900	0.1	q
q625	11600	0.1	q
q626	12100	0.1	q
q627	11700	0.1	q
q628	11800	0.1	q
q629	12300	0.1	q
q630	13300	0.1	q
q631	13800	0.1	q
q632	12400	0.1	q
q633	11700	0.1	q
q634	12000	0.1	q
q635	12700	0.1	q
q636	11600	0.1	q
q637	11100	0.1	q
q638	10800	0.1	q
q639	10600	0.1	q
q640	10700	0.1	q
q641	10800	0.1	q
q642	12200	0.1	q
q643	13500	0.1	q
q644	14900	0.1	q
q645	16900	0.1	q
q646	15400	0.1	q
q647	15300	0.1	q
q648	17400	0.1	q
q649	19500	0.1	q
q650	20700	0.1	q
q651	22300	0.1	q
q652	22700	0.1	q
q653	24700	0.1	q
q654	28000	0.1	q
q655	29200	0.1	q
q656	31100	0.1	q
q657	33400	0.1	q
q658	34100	0.1	q
q659	31700	0.1	q
q660	29800	0.1	q
q661	32000	0.1	q
q662	32600	0.1	q
q663	30000	0.1	q
q664	35000	0.1	q
q665	37200	0.1	q
q666	38600	0.1	q
q667	29000	0.1	q
q668	24800	0.1	q
q669	24300	0.1	q
q670	28400	0.1	q
q671	33900	0.1	q
q672	39000	0.1	q
q673	42100	0.1	q
q674	41700	0.1	q
q675	36400	0.1	q
q676	32100	0.1	q
q677	27900	0.1	q
q678	25100	0.1	q
q679	22700	0.1	q
q680	21700	0.1	q
q681	22700	0.1	q
q682	27900	0.1	q
q683	28600	0.1	q
q684	30400	0.1	q
q685	30300	0.1	q
q686	31000	0.1	q
q687	35000	0.1	q
q688	39200	0.1	q
q689	41700	0.1	q
q690	41700	0.1	q
q691	39200	0.1	q
q692	42300	0.1	q
q693	41900	0.1	q
q694	36300	0.1	q
q695	35900	0.1	q
q696	35200	0.1	q
q697	36000	0.1	q
q698	36300	0.1	q
q699	35900	0.1	q
q700	36100	0.1	q
q701	35900	0.1	q
q702	32400	0.1	q
q703	27000	0.1	q
q704	28500	0.1	q
q705	31300	0.1	q
q706	31800	0.1	q
q707	31700	0.1	q
q708	32100	0.1	q
q709	32500	0.1	q
q710	30700	0.1	q
q711	28300	0.1	q
q712	27800	0.1	q
q713	26200	0.1	q
q714	23800	0.1	q
q715	26200	0.1	q
q716	27800	0.1	q
q717	27200	0.1	q
q718	26100	0.1	q
q719	24700	0.1	q
q720	22100	0.1	q
q721	19600	0.1	q
q722	17400	0.1	q
q723	17400	0.1	q
q724	16800	0.1	q
q725	16200	0.1	q
q726	16300	0.1	q
q727	15900	0.1	q
q728	14900	0.1	q
q729	14500	0.1	q
q730	13800	0.1	q
q731	13100	0.1	q
q732	12600	0.1	q
q733	12400	0.1	q
q734	12000	0.1	q
q735	11900	0.1	q
q736	11300	0.1	q
q737	10700	0.1	q
q738	10500	0.1	q
q739	10300	0.1	q
q740	9940	0.1	q
q741	9980	0.1	q
q742	9930	0.1	q
q743	9620	0.1	q
q744	9360	0.1	q
q745	9040	0.1	q
q746	9080	0.1	q
q747	9460	0.1	q
q748	9540	0.1	q
q749	9130	0.1	q
q750	8640	0.1	q
q751	8500	0.1	q
q752	8250	0.1	q
q753	8090	0.1	q
q754	8000	0.1	q
q755	7890	0.1	q
q756	7750	0.1	q
q757	7740	0.1	q
q758	7490	0.1	q
q759	7360	0.1	q
q760	7410	0.1	q
q761	7330	0.1	q
q762	7160	0.1	q
q763	7070	0.1	q
q764	7020	0.1	q
q765	7130	0.1	q
q766	6910	0.1	q
q767	6830	0.1	q
q768	6800	0.1	q
q769	7700	0.1	q
q770	8010	0.1	q
q771	7300	0.1	q
q772	7020	0.1	q
q773	6630	0.1	q
q774	6520	0.1	q
q775	6500	0.1	q
q776	6320	0.1	q
q777	6360	0.1	q
q778	6410	0.1	q
q779	6300	0.1	q
q780	6220	0.1	q
q781	6300	0.1	q
q782	6290	0.1	q
q783	6340	0.1	q
q784	6260	0.1	q
q785	6250	0.1	q
q786	6190	0.1	q
q787	6140	0.1	q
q788	6290	0.1	q
q789	6270	0.1	q
q790	5950	0.1	q
q791	5900	0.1	q
q792	6030	0.1	q
q793	5940	0.1	q
q794	5980	0.1	q
q795	5910	0.1	q
q796	5840	0.1	q
q797	5750	0.1	q
q798	5620	0.1	q
q799	5550	0.1	q
q800	5610	0.1	q
q801	5590	0.1	q
q802	5390	0.1	q
q803	5440	0.1	q
q804	5400	0.1	q
q805	5530	0.1	q
q806	5560	0.1	q
q807	5530	0.1	q
q808	5470	0.1	q
q809	5360	0.1	q
q810	5230	0.1	q
q811	5140	0.1	q
q812	5190	0.1	q
q813	5150	0.1	q
q814	5190	0.1	q
q815	5050	0.1	q
q816	5100	0.1	q
q817	5190	0.1	q
q818	4970	0.1	q
q819	5110	0.1	q
q820	5260	0.1	q
q821	5370	0.1	q
q822	5150	0.1	q
q823	4730	0.1	q
q824	4530	0.1	q
q825	4460	0.1	q
q826	4470	0.1	q
q827	4310	0.1	q
q828	4370	0.1	q
q829	4320	0.1	q
q830	4290	0.1	q
q831	5530	0.1	q
q832	5500	0.1	q
q833	5570	0.1	q
q834	5420	0.1	q
q835	5190	0.1	q
q836	5220	0.1	q
q837	5130	0.1	q
q838	5070	0.1	q
q839	4990	0.1	q
q840	4910	0.1	q
q841	4950	0.1	q
q842	5080	0.1	q
q843	5030	0.1	q
q844	4940	0.1	q
q845	4890	0.1	q
q846	4700	0.1	q
q847	4480	0.1	q
q848	4810	0.1	q
q849	4660	0.1	q
q850	4610	0.1	q
q851	4490	0.1	q
q852	4390	0.1	q
q853	4460	0.1	q
q854	4090	1	q
q855	4280	0.1	q
q856	3990	1	q
q857	3910	1	q
q858	3890	1	q
q859	3770	1	q
q860	3730	1	q
q861	3740	1	q
q862	3740	1	q
q863	3680	1	q
q864	4100	1	q
q865	5410	0.1	q
q866	5150	0.1	q
q867	5000	0.1	q
q868	4810	0.1	q
q869	4880	0.1	q
q870	4940	0.1	q
q871	4810	0.1	q
q872	4900	0.1	q
q873	4860	0.1	q
q874	4820	0.1	q
q875	4950	0.1	q
q876	7440	0.1	q
q877	13700	0.1	q
q878	8830	0.1	q
q879	7290	0.1	q
q880	7670	0.1	q
q881	6800	0.1	q
q882	6520	0.1	q
q883	6540	0.1	q
q884	6450	0.1	q
q885	6760	0.1	q
q886	8950	0.1	q
q887	5220	0.1	q
q888	6310	0.1	q
q889	7450	0.1	q
q890	7420	0.1	q
q891	7840	0.1	q
q892	8160	0.1	q
q893	8230	0.1	q
q894	8020	0.1	q
q895	7700	0.1	q
q896	7570	0.1	q
q897	7490	0.1	q
q898	7580	0.1	q
q899	7650	0.1	q
q900	7600	0.1	q
q901	7520	0.1	q
q902	7770	0.1	q
q903	7940	0.1	q
q904	8150	0.1	q
q905	8690	0.1	q
q906	8980	0.1	q
q907	10000	0.1	q
q908	12100	0.1	q
q909	11400	0.1	q
q910	9800	0.1	q
q911	8990	0.1	q
q912	8670	0.1	q
q913	8210	0.1	q
q914	8120	0.1	q
q915	7860	0.1	q
q916	7820	0.1	q
q917	7730	0.1	q
q918	7440	0.1	q
q919	7310	0.1	q
q920	7320	0.1	q
q921	7280	0.1	q
q922	7140	0.1	q
q923	7190	0.1	q
q924	7390	0.1	q
q925	7600	0.1	q
q926	7940	0.1	q
q927	8040	0.1	q
q928	8290	0.1	q
q929	8210	0.1	q
q930	8250	0.1	q
q931	8510	0.1	q
q932	9950	0.1	q
q933	10100	0.1	q
q934	9680	0.1	q
q935	9320	0.1	q
q936	9190	0.1	q
q937	8300	0.1	q
q938	9260	0.1	q
q939	9620	0.1	q
q940	11900	0.1	q
q941	11300	0.1	q
q942	10700	0.1	q
q943	9940	0.1	q
q944	9500	0.1	q
q945	9890	0.1	q
q946	9470	0.1	q
q947	9080	0.1	q
q948	9800	0.1	q
q949	10300	0.1	q
q950	10600	0.1	q
q951	11600	0.1	q
q952	11400	0.1	q
q953	12500	0.1	q
q954	14200	0.1	q
q955	14800	0.1	q
q956	15900	0.1	q
q957	16500	0.1	q
q958	16200	0.1	q
q959	15600	0.1	q
q960	15300	0.1	q
q961	15800	0.1	q
q962	14500	0.1	q
q963	13700	0.1	q
q964	13300	0.1	q
q965	12900	0.1	q
q966	16000	0.1	q
q967	21900	0.1	q
q968	22600	0.1	q
q969	22600	0.1	q
q970	22300	0.1	q
q971	21000	0.1	q
q972	18700	0.1	q
q973	17400	0.1	q
q974	16600	0.1	q
q975	16400	0.1	q
q976	16400	0.1	q
q977	16400	0.1	q
q978	16600	0.1	q
q979	18000	0.1	q
q980	16100	0.1	q
q981	15300	0.1	q
q982	14500	0.1	q
q983	14100	0.1	q
q984	14600	0.1	q
q985	14000	0.1	q
q986	14100	0.1	q
q987	14100	0.1	q
q988	14700	0.1	q
q989	14100	0.1	q
q990	13700	0.1	q
q991	13100	0.1	q
q992	12700	0.1	q
q993	12600	0.1	q
q994	12500	0.1	q
q995	13400	0.1	q
q996	14200	0.1	q
q997	14500	0.1	q
q998	16900	0.1	q
q999	19900	0.1	q
q1000	22000	0.1	q
q1001	23200	0.1	q
q1002	23400	0.1	q
q1003	23500	0.1	q
q1004	21500	0.1	q
q1005	23200	0.1	q
q1006	25000	0.1	q
q1007	24000	0.1	q
q1008	22600	0.1	q
q1009	22900	0.1	q
q1010	24600	0.1	q
q1011	23700	0.1	q
q1012	21500	0.1	q
q1013	20900	0.1	q
q1014	22800	0.1	q
q1015	25200	0.1	q
q1016	25900	0.1	q
q1017	32900	0.1	q
q1018	38900	0.1	q
q1019	41800	0.1	q
q1020	38600	0.1	q
q1021	44100	0.1	q
q1022	48600	0.1	q
q1023	46900	0.1	q
q1024	40000	0.1	q
q1025	33800	0.1	q
q1026	30200	0.1	q
q1027	30700	0.1	q
q1028	29800	0.1	q
q1029	33200	0.1	q
q1030	32900	0.1	q
q1031	30800	0.1	q
q1032	31800	0.1	q
q1033	32100	0.1	q
q1034	31300	0.1	q
q1035	35400	0.1	q
q1036	42200	0.1	q
q1037	44700	0.1	q
q1038	38800	0.1	q
q1039	39200	0.1	q
q1040	41100	0.1	q
q1041	44000	0.1	q
q1042	43700	0.1	q
q1043	41300	0.1	q
q1044	38900	0.1	q
q1045	35800	0.1	q
q1046	37900	0.1	q
q1047	43400	0.1	q
q1048	49200	0.1	q
q1049	53900	0.1	q
q1054	64100	0.1	q
q1055	58300	0.1	q
q1056	58700	0.1	q
q1065	67500	0.1	q
q1066	62400	0.1	q
q1067	62100	0.1	q
q1068	65800	0.1	q
q1069	60900	0.1	q
q1070	58100	0.1	q
q1071	59500	0.1	q
q1072	62600	0.1	q
q1073	59800	0.1	q
q1074	54900	0.1	q
q1075	51700	0.1	q
q1076	53200	0.1	q
q1078	62700	0.1	q
q1079	63600	0.1	q
q1080	60900	0.1	q
q1081	53500	0.1	q
q1082	55200	0.1	q
q1083	57200	0.1	q
q1084	52600	0.1	q
q1085	48600	0.1	q
q1086	46000	0.1	q
q1087	44200	0.1	q
q1088	40200	0.1	q
q1089	37200	0.1	q
q1090	37700	0.1	q
q1091	41800	0.1	q
q1092	44500	0.1	q
q1093	45200	0.1	q
q1094	43300	0.1	q
q1095	41400	0.1	q
q1096	41400	0.1	q
q1097	38900	0.1	q
q1098	37600	0.1	q
q1099	37000	0.1	q
q1100	36000	0.1	q
q1101	36700	0.1	q
q1102	35300	0.1	q
q1103	35000	0.1	q
q1104	33100	0.1	q
q1105	31700	0.1	q
q1106	30500	0.1	q
q1107	29600	0.1	q
q1108	30600	0.1	q
q1109	30300	0.1	q
q1110	29100	0.1	q
q1111	27700	0.1	q
q1112	26800	0.1	q
q1113	25200	0.1	q
q1114	24000	0.1	q
q1115	22800	0.1	q
q1116	21700	0.1	q
q1117	21000	0.1	q
q1118	23600	0.1	q
q1119	25000	0.1	q
q1120	24500	0.1	q
q1121	23800	0.1	q
q1122	24900	0.1	q
q1123	25000	0.1	q
q1124	22700	0.1	q
q1125	24700	0.1	q
q1126	17600	0.1	q
q1127	18000	0.1	q
q1128	17000	0.1	q
q1129	16800	0.1	q
q1130	16000	0.1	q
q1131	15400	0.1	q
q1132	15100	0.1	q
q1133	14800	0.1	q
q1134	14300	0.1	q
q1135	13800	0.1	q
q1136	13500	0.1	q
q1137	13300	0.1	q
q1138	13100	0.1	q
q1139	12600	0.1	q
q1140	12300	0.1	q
q1141	12400	0.1	q
q1142	12300	0.1	q
q1143	12200	0.1	q
q1144	11800	0.1	q
q1145	11800	0.1	q
q1146	11700	0.1	q
q1147	11600	0.1	q
q1148	11400	0.1	q
q1149	11200	0.1	q
q1150	10900	0.1	q
q1151	10600	0.1	q
q1152	10500	0.1	q
q1153	10600	0.1	q
q1154	10300	0.1	q
q1155	10300	0.1	q
q1156	10200	0.1	q
q1157	9780	0.1	q
q1158	9580	0.1	q
q1159	9430	0.1	q
q1160	9250	0.1	q
q1161	9140	0.1	q
q1162	9250	0.1	q
q1163	9730	0.1	q
q1164	9070	0.1	q
q1165	8610	0.1	q
q1166	8580	0.1	q
q1167	8430	0.1	q
q1168	8510	0.1	q
q1169	8390	0.1	q
q1170	8390	0.1	q
q1171	8460	0.1	q
q1172	8450	0.1	q
q1173	8310	0.1	q
q1174	8410	0.1	q
q1175	8410	0.1	q
q1176	8330	0.1	q
q1177	8300	0.1	q
q1178	8230	0.1	q
q1179	8080	0.1	q
q1180	8090	0.1	q
q1181	8090	0.1	q
q1182	7880	0.1	q
q1183	7820	0.1	q
q1184	7860	0.1	q
q1185	7820	0.1	q
q1186	7840	0.1	q
q1187	7760	0.1	q
q1188	7410	0.1	q
q1189	7050	0.1	q
q1190	7030	0.1	q
q1191	6810	0.1	q
q1192	6760	0.1	q
q1193	6840	0.1	q
q1194	6590	0.1	q
q1195	6710	0.1	q
q1196	6570	0.1	q
q1197	6620	0.1	q
q1198	6570	0.1	q
q1199	6530	0.1	q
q1200	6600	0.1	q
q1201	6620	0.1	q
q1202	6660	0.1	q
q1203	6690	0.1	q
q1204	6730	0.1	q
q1205	6690	0.1	q
q1206	6890	0.1	q
q1207	6690	0.1	q
q1208	6390	0.1	q
q1209	6530	0.1	q
q1210	6490	0.1	q
q1211	6520	0.1	q
q1212	6510	0.1	q
q1213	6560	0.1	q
q1214	6470	0.1	q
q1215	6530	0.1	q
q1216	6250	0.1	q
q1217	6220	0.1	q
q1218	6270	0.1	q
q1219	6320	0.1	q
q1220	6280	0.1	q
q1221	5980	0.1	q
q1222	5940	0.1	q
q1223	5870	0.1	q
q1224	5850	0.1	q
q1225	5980	0.1	q
q1226	6050	0.1	q
q1227	5810	0.1	q
q1228	5760	0.1	q
q1229	5800	0.1	q
q1230	5740	0.1	q
q1231	5790	0.1	q
q1232	5670	0.1	q
q1233	5690	0.1	q
q1234	5580	0.1	q
q1235	5760	0.1	q
q1236	6130	0.1	q
q1237	7260	0.1	q
q1238	8820	0.1	q
q1239	7480	0.1	q
q1240	7720	0.1	q
q1241	7780	0.1	q
q1242	7710	0.1	q
q1243	7490	0.1	q
q1244	7340	0.1	q
q1245	7330	0.1	q
q1246	7290	0.1	q
q1247	7340	0.1	q
q1248	7250	0.1	q
q1249	7250	0.1	q
q1250	6820	0.1	q
q1251	6590	0.1	q
q1252	6750	0.1	q
q1253	7000	0.1	q
q1254	6880	0.1	q
q1255	6880	0.1	q
q1256	6850	0.1	q
q1257	7030	0.1	q
q1258	6830	0.1	q
q1259	6680	0.1	q
q1260	6700	0.1	q
q1261	6760	0.1	q
q1262	6860	0.1	q
q1263	6950	0.1	q
q1264	7030	0.1	q
q1265	6860	0.1	q
q1266	6850	0.1	q
q1267	7200	0.1	q
q1268	6940	0.1	q
q1269	7130	0.1	q
q1270	7080	0.1	q
q1271	7040	0.1	q
q1272	6900	0.1	q
q1273	7030	0.1	q
q1274	7080	0.1	q
q1275	6860	0.1	q
q1276	6870	0.1	q
q1277	7040	0.1	q
q1278	7010	0.1	q
q1279	6680	0.1	q
q1280	6720	0.1	q
q1281	6590	0.1	q
q1282	6760	0.1	q
q1283	6740	0.1	q
q1284	7140	0.1	q
q1285	6020	0.1	q
q1286	7160	0.1	q
q1287	7190	0.1	q
q1288	7100	0.1	q
q1289	7180	0.1	q
q1290	7270	0.1	q
q1291	7150	0.1	q
q1292	6760	0.1	q
q1293	6880	0.1	q
q1294	7060	0.1	q
q1295	6980	0.1	q
q1296	7000	0.1	q
q1297	7300	0.1	q
q1298	7100	0.1	q
q1299	6880	0.1	q
q1300	6640	0.1	q
q1301	6490	0.1	q
q1302	6460	0.1	q
q1303	6300	0.1	q
q1304	6240	0.1	q
q1305	6150	0.1	q
q1306	6000	0.1	q
q1307	6120	0.1	q
q1308	6670	0.1	q
q1309	6540	0.1	q
q1310	7790	0.1	q
q1311	7810	0.1	q
q1312	7870	0.1	q
q1313	7580	0.1	q
q1314	7360	0.1	q
q1315	7310	0.1	q
q1316	7070	0.1	q
q1317	7100	0.1	q
q1318	7340	0.1	q
q1319	7640	0.1	q
q1320	7720	0.1	q
q1321	7680	0.1	q
q1322	7520	0.1	q
q1323	7630	0.1	q
q1324	7970	0.1	q
q1325	8180	0.1	q
q1326	8590	0.1	q
q1327	8750	0.1	q
q1328	8510	0.1	q
q1329	8400	0.1	q
q1330	8130	0.1	q
q1331	7810	0.1	q
q1332	7800	0.1	q
q1333	7650	0.1	q
q1334	7720	0.1	q
q1335	7920	0.1	q
q1336	7970	0.1	q
q1337	7750	0.1	q
q1338	7810	0.1	q
q1339	7730	0.1	q
q1340	6690	0.1	q
q1341	6970	0.1	q
q1342	7380	0.1	q
q1343	7450	0.1	q
q1344	7370	0.1	q
q1345	7090	0.1	q
q1346	6910	0.1	q
q1347	6450	0.1	q
q1348	6450	0.1	q
q1349	6620	0.1	q
q1350	6590	0.1	q
q1351	6690	0.1	q
q1352	7250	0.1	q
q1353	8030	0.1	q
q1354	7670	0.1	q
q1355	7860	0.1	q
q1356	8480	0.1	q
q1357	8410	0.1	q
q1358	7900	0.1	q
q1359	8000	0.1	q
q1360	8210	0.1	q
q1361	9090	0.1	q
q1362	8900	0.1	q
q1363	9470	0.1	q
q1364	9960	0.1	q
q1365	9530	0.1	q
q1366	9100	0.1	q
q1367	8590	0.1	q
q1368	8630	0.1	q
q1369	9190	0.1	q
q1370	9100	0.1	q
q1371	8570	0.1	q
q1372	9280	0.1	q
q1373	10400	0.1	q
q1374	11600	0.1	q
q1375	13400	0.1	q
q1376	14000	0.1	q
q1377	12900	0.1	q
q1378	11400	0.1	q
q1379	11300	0.1	q
q1380	12900	0.1	q
q1381	16200	0.1	q
q1382	19700	0.1	q
q1383	23400	0.1	q
q1384	26900	0.1	q
q1385	27400	0.1	q
q1386	25700	0.1	q
q1387	24700	0.1	q
q1388	25000	0.1	q
q1389	25200	0.1	q
q1390	25100	0.1	q
q1391	24400	0.1	q
q1392	25700	0.1	q
q1393	24800	0.1	q
q1394	21600	0.1	q
q1395	18800	0.1	q
q1396	18600	0.1	q
q1397	20900	0.1	q
q1398	27200	0.1	q
q1399	31300	0.1	q
q1400	31400	0.1	q
q1401	27500	0.1	q
q1402	23700	0.1	q
q1403	21500	0.1	q
q1404	18700	0.1	q
q1405	18600	0.1	q
q1406	19100	0.1	q
q1407	20300	0.1	q
q1408	20600	0.1	q
q1409	20300	0.1	q
q1410	21300	0.1	q
q1411	20500	0.1	q
q1412	18500	0.1	q
q1413	18700	0.1	q
q1414	20000	0.1	q
q1415	19600	0.1	q
q1416	16700	0.1	q
q1417	16500	0.1	q
q1418	16600	0.1	q
q1419	16700	0.1	q
q1420	17800	0.1	q
q1421	21300	0.1	q
q1422	23400	0.1	q
q1423	22600	0.1	q
q1424	23000	0.1	q
q1425	21000	0.1	q
q1426	18700	0.1	q
q1427	17600	0.1	q
q1428	16400	0.1	q
q1429	16100	0.1	q
q1430	15900	0.1	q
q1431	15900	0.1	q
q1432	14900	0.1	q
q1433	13900	0.1	q
q1434	13000	0.1	q
q1435	12200	0.1	q
q1436	12400	0.1	q
q1437	12200	0.1	q
q1438	11400	0.1	q
q1439	10900	0.1	q
q1440	10900	0.1	q
q1441	10200	0.1	q
q1442	10200	0.1	q
q1443	10100	0.1	q
q1444	9930	0.1	q
q1445	9450	0.1	q
q1446	9160	0.1	q
q1447	9200	0.1	q
q1448	9380	0.1	q
q1449	9350	0.1	q
q1450	9250	0.1	q
q1451	9020	0.1	q
q1452	8540	0.1	q
q1453	8620	0.1	q
q1454	8420	0.1	q
q1455	8230	0.1	q
q1456	8130	0.1	q
q1457	8070	0.1	q
q1458	7870	0.1	q
q1459	7700	0.1	q
q1460	7560	0.1	q
q1461	7580	0.1	q
q1462	7400	0.1	q
q1463	7290	0.1	q
q1464	7320	0.1	q
q1465	7360	0.1	q
q1466	7300	0.1	q
q1467	7260	0.1	q
q1468	7150	0.1	q
q1469	7110	0.1	q
q1470	7000	0.1	q
q1471	6920	0.1	q
q1472	6790	0.1	q
q1473	6710	0.1	q
q1474	6740	0.1	q
q1475	6640	0.1	q
q1476	6850	0.1	q
q1477	6970	0.1	q
q1478	7540	0.1	q
q1479	7060	0.1	q
q1480	6760	0.1	q
q1481	6480	0.1	q
q1482	6390	0.1	q
q1483	6330	0.1	q
q1484	6180	0.1	q
q1485	6190	0.1	q
q1486	6190	0.1	q
q1487	6110	0.1	q
q1488	5990	0.1	q
q1489	5960	0.1	q
q1490	5930	0.1	q
q1491	5950	0.1	q
q1492	5890	0.1	q
q1493	5760	0.1	q
q1494	5650	0.1	q
q1495	5440	0.1	q
q1496	5310	0.1	q
q1497	5250	0.1	q
q1498	5190	0.1	q
q1499	5160	0.1	q
q1500	5140	0.1	q
q1501	5060	0.1	q
q1502	5080	0.1	q
q1503	5190	0.1	q
q1504	5160	0.1	q
q1505	5100	0.1	q
q1506	5060	0.1	q
q1507	5040	0.1	q
q1508	5000	0.1	q
q1509	4950	0.1	q
q1510	4990	0.1	q
q1511	4950	0.1	q
q1512	5030	0.1	q
q1513	5050	0.1	q
q1514	5240	0.1	q
q1515	5360	0.1	q
q1516	5530	0.1	q
q1517	5410	0.1	q
q1518	5230	0.1	q
q1519	5100	0.1	q
q1520	5080	0.1	q
q1521	5060	0.1	q
q1522	4900	0.1	q
q1523	4680	0.1	q
q1524	4590	0.1	q
q1525	4490	0.1	q
q1526	4440	0.1	q
q1527	4370	0.1	q
q1528	4410	0.1	q
q1529	4430	0.1	q
q1530	4450	0.1	q
q1531	4430	0.1	q
q1532	4420	0.1	q
q1533	4390	0.1	q
q1534	4410	0.1	q
q1535	4390	0.1	q
q1536	4350	0.1	q
q1537	4320	0.1	q
q1538	4310	0.1	q
q1539	4330	0.1	q
q1540	4330	0.1	q
q1541	4360	0.1	q
q1542	4340	0.1	q
q1543	4350	0.1	q
q1544	4330	0.1	q
q1545	4220	0.1	q
q1546	4070	1	q
q1547	4130	1	q
q1548	4190	1	q
q1549	4260	0.1	q
q1550	4240	0.1	q
q1551	4240	0.1	q
q1552	4950	0.1	q
q1553	4980	0.1	q
q1554	4590	0.1	q
q1555	4390	0.1	q
q1556	4340	0.1	q
q1557	4360	0.1	q
q1558	4280	0.1	q
q1559	4200	1	q
q1560	4150	1	q
q1561	4120	1	q
q1562	4050	1	q
q1563	4020	1	q
q1564	4030	1	q
q1565	4030	1	q
q1566	4120	1	q
q1567	4200	1	q
q1568	4190	1	q
q1569	4040	1	q
q1570	4070	1	q
q1571	3980	1	q
q1572	4060	1	q