pcf
* control data
restart estimation
42    9787      18       0       2
2    2 single point   1   0   0
10.0  -3  0.3  0.03  10  lamforgive derforgive
10.0  10.0  0.001
0.1  noaui
50  0.005  4  4  0.005  4
0 0 0  PARSAVEITN
* singular value decomposition
1
42 5E-07
0
* parameter groups
ddsd         relative 0.025  0.0  switch  2.0 parabolic 1.0e-4 0.5 smaller
ddsw         relative 0.025  0.0  switch  2.0 parabolic 1.0e-4 0.5 smaller
ddgd         relative 0.025  0.0  switch  2.0 parabolic 1.0e-4 0.5 smaller
ddgw         relative 0.025  0.0  switch  2.0 parabolic 1.0e-4 0.5 smaller
rcsd         relative 0.025  0.0  switch  2.0 parabolic 1.0e-4 0.5 smaller
rcsw         relative 0.025  0.0  switch  2.0 parabolic 1.0e-4 0.5 smaller
rcrd         relative 0.025  0.0  switch  2.0 parabolic 1.0e-4 0.5 smaller
rcrw         relative 0.025  0.0  switch  2.0 parabolic 1.0e-4 0.5 smaller
rcgd         relative 0.025  0.0  switch  2.0 parabolic 1.0e-4 0.5 smaller
rcgw         relative 0.025  0.0  switch  2.0 parabolic 1.0e-4 0.5 smaller
tl           relative 0.025  0.0  switch  2.0 parabolic 1.0e-4 0.5 smaller
xw           relative 0.025  0.0  switch  2.0 parabolic 1.0e-4 0.5 smaller
yw           relative 0.03  0.0  switch  2.0 parabolic 1.0e-4 0.5 smaller
x           relative 0.025  0.0  switch  2.0 parabolic 1.0e-4 0.5 smaller
y            relative 0.025  0.0  switch  2.0 parabolic 1.0e-4 0.5 smaller
tlr			 relative 0.5  0.0  switch  2.0 parabolic 1.0e-4 0.5 smaller
tls			 relative 0.5  0.0  switch  2.0 parabolic 1.0e-4 0.5 smaller
beta			 relative 0.025  0.0  switch  2.0 parabolic 1.0e-4 0.5 smaller
* parameter data
ddsd	log	factor   0.1241900      1.00e-01	2.1	ddsd	1	0	1
ddsw	log	factor   0.2389100      1.00e-01	2.1	ddsw	1	0	1
ddgd	log	factor   0.3946316      1.00e-08	2.1	ddgd	1	0	1
ddgw	log	factor   2.5486153E-02  1.00e-08	2.1	ddgw	1	0	1
rcs1d	log	factor   0.9000728      1.00e-08	2	rcsd	1	0	1
rcs1w	log	factor   0.9101224      1.00e-08	2	rcsw	1	0	1
rcs2d	log	factor   0.1318243      1.00e-08	2	rcsd	1	0	1
rcs2w	log	factor    2.000000      1.00e-08	2	rcsw	1	0	1
rcs3d	log	factor   1.1863461E-02  1.00e-08	1	rcsd	1	0	1
rcs3w	log	factor    1.000000      1.00e-08	1	rcsw	1	0	1
rcs4d	log	factor   1.7818975E-03  1.00e-08	1	rcsd	1	0	1
rcs4w	log	factor   2.4395866E-03  1.00e-08	1	rcsw	1	0	1
rcs5d	log	factor   0.4724328      1.00e-08	1	rcsd	1	0	1
rcs5w	log	factor   0.3249811      1.00e-08	1	rcsw	1	0	1
rcs6d	log	factor   0.2102950      1.00e-08	1	rcsd	1	0	1
rcs6w	log	factor   0.5819604      1.00e-08	1	rcsw	1	0	1
rcs7d	log	factor   1.3524832E-02  1.00e-08	1	rcsd	1	0	1
rcs7w	log	factor   2.9046595E-04  1.00e-08	1	rcsw	1	0	1
rcr1d	log	factor   1.8052306E-02  1.00e-08	1	rcrd	1	0	1
rcr1w	log	factor   0.9823642      1.00e-08	1	rcrw	1	0	1
rcr2d	log	factor   1.6302036E-03  1.00e-08	1	rcrd	1	0	1
rcr2w	log	factor    1.000000      1.00e-08	1	rcrw	1	0	1
rcr3d	log	factor   0.1980578      1.00e-08	1	rcrd	1	0	1
rcr3w	log	factor   1.1274306E-02  1.00e-08	1	rcrw	1	0	1
rcr4d	log	factor   1.2115820E-03  1.00e-08	1	rcrd	1	0	1
rcr4w	log	factor   5.2023268E-03  1.00e-08	1	rcrw	1	0	1
rcr5d	log	factor   2.5897571E-04  1.00e-08	1	rcrd	1	0	1
rcr5w	log	factor   6.6092622E-04  1.00e-08	1	rcrw	1	0	1
rcr6d	log	factor   1.0827312E-04  1.00e-08	1	rcrd	1	0	1
rcr6w	log	factor   4.5938011E-04  1.00e-08	1	rcrw	1	0	1
rcr7d	log	factor   5.3413140E-05  1.00e-08	1	rcrd	1	0	1
rcr7w	log	factor   1.0498286E-03  1.00e-08	1	rcrw	1	0	1
rcgd	log	factor   4.6154480E-02  1.00e-08	2	rcgd	1	0	1
rcgw	log	factor   0.1210795      1.00e-08	2	rcgw	1	0	1
tl	log	factor    4.934224      1.00e-08	5	tl	1	0	1
xw	log	factor    2.100000      1.00e-08	2.1	xw	1	0	1
yw	log	factor   0.1768574      1.00e-08	1	yw	1	0	1
x	log	factor    1.449438      1.00e-08	2.3	x	1	0	1
y	log	factor   0.1315863      1.00e-08	1	y	1	0	1
tlr	log	factor   6.8200000E-02  1.00e-08	10	tlr	1	0	1
tls	log	factor   0.2220000      1.00e-08	30	tls	1	0	1
beta	log	factor   0.6000000      2.00e-01	6e-01	beta	1	0	1
* observation groups
q
swe
* observation data
q1 6.0 1.0 q
q2 6.0 1.0 q
q3 6.0 1.0 q
q4 78.0 1.0 q
q5 78.0 1.0 q
q6 78.0 1.0 q
q7 6.0 1.0 q
q8 15.0 1.0 q
q9 17.0 1.0 q
q10 58.0 1.0 q
q11 63.0 1.0 q
q12 51.0 1.0 q
q13 50.0 1.0 q
q14 52.0 1.0 q
q15 51.0 1.0 q
q16 15.0 1.0 q
q17 6.0 1.0 q
q18 6.0 1.0 q
q19 6.0 1.0 q
q20 6.0 1.0 q
q21 6.0 1.0 q
q22 6.0 1.0 q
q23 6.0 1.0 q
q24 6.0 1.0 q
q27 15.0 1.0 q
q28 15.0 1.0 q
q29 15.0 1.0 q
q30 15.0 1.0 q
q33 40.0 1.0 q
q34 17.0 1.0 q
q35 15.0 1.0 q
q36 15.0 1.0 q
q37 15.0 1.0 q
q38 23.0 1.0 q
q39 31.0 1.0 q
q40 16.0 1.0 q
q44 15.0 1.0 q
q45 15.0 1.0 q
q46 15.0 1.0 q
q47 15.0 1.0 q
q48 15.0 1.0 q
q49 15.0 1.0 q
q50 15.0 1.0 q
q51 15.0 1.0 q
q52 15.0 1.0 q
q53 15.0 1.0 q
q54 15.0 1.0 q
q55 14.0 1.0 q
q56 12.0 1.0 q
q57 14.0 1.0 q
q58 14.0 1.0 q
q59 15.0 1.0 q
q60 15.0 1.0 q
q61 15.0 1.0 q
q62 15.0 1.0 q
q63 16.0 1.0 q
q64 16.0 1.0 q
q65 15.0 1.0 q
q66 13.0 1.0 q
q67 13.0 1.0 q
q68 14.0 1.0 q
q69 13.0 1.0 q
q70 19.0 1.0 q
q71 20.0 1.0 q
q72 17.0 1.0 q
q73 16.0 1.0 q
q74 16.0 1.0 q
q75 16.0 1.0 q
q76 12.0 1.0 q
q77 12.0 1.0 q
q78 15.0 1.0 q
q79 16.0 1.0 q
q80 18.0 1.0 q
q81 18.0 1.0 q
q82 20.0 1.0 q
q83 20.0 1.0 q
q84 15.0 1.0 q
q85 17.0 1.0 q
q86 17.0 1.0 q
q87 17.0 1.0 q
q88 15.0 1.0 q
q89 15.0 1.0 q
q90 15.0 1.0 q
q91 15.0 1.0 q
q92 14.0 1.0 q
q93 10.0 1.0 q
q94 11.0 1.0 q
q95 12.0 1.0 q
q96 13.0 1.0 q
q97 12.0 1.0 q
q98 12.0 1.0 q
q99 9.0 1.0 q
q100 9.0 1.0 q
q101 11.0 1.0 q
q102 14.0 1.0 q
q103 17.0 1.0 q
q104 19.0 1.0 q
q105 69.0 1.0 q
q106 26.0 1.0 q
q107 16.0 1.0 q
q108 69.0 1.0 q
q109 24.0 1.0 q
q110 16.0 1.0 q
q111 36.0 1.0 q
q112 54.0 1.0 q
q113 33.0 1.0 q
q114 14.0 1.0 q
q115 54.0 1.0 q
q116 51.0 1.0 q
q117 32.0 1.0 q
q118 15.0 1.0 q
q119 15.0 1.0 q
q120 15.0 1.0 q
q121 15.0 1.0 q
q122 17.0 1.0 q
q123 31.0 1.0 q
q124 15.0 1.0 q
q125 15.0 1.0 q
q126 15.0 1.0 q
q127 15.0 1.0 q
q128 15.0 1.0 q
q129 6.0 1.0 q
q130 6.0 1.0 q
q131 6.0 1.0 q
q132 50.0 1.0 q
q133 50.0 1.0 q
q134 36.0 1.0 q
q135 47.0 1.0 q
q136 48.0 1.0 q
q137 18.0 1.0 q
q138 15.0 1.0 q
q139 15.0 1.0 q
q140 15.0 1.0 q
q141 15.0 1.0 q
q142 17.0 1.0 q
q143 47.0 1.0 q
q144 50.0 1.0 q
q145 48.0 1.0 q
q146 32.0 1.0 q
q147 18.0 1.0 q
q148 15.0 1.0 q
q149 15.0 1.0 q
q150 6.0 1.0 q
q151 6.0 1.0 q
q152 6.0 1.0 q
q153 111.0 1.0 q
q154 32.0 1.0 q
q155 63.0 1.0 q
q156 25.0 1.0 q
q157 45.0 1.0 q
q158 18.0 1.0 q
q159 15.0 1.0 q
q160 15.0 1.0 q
q161 15.0 1.0 q
q162 15.0 1.0 q
q163 15.0 1.0 q
q164 15.0 1.0 q
q165 17.0 1.0 q
q166 48.0 1.0 q
q167 75.0 1.0 q
q168 78.0 1.0 q
q169 46.0 1.0 q
q170 49.0 1.0 q
q171 53.0 1.0 q
q172 59.0 1.0 q
q173 61.0 1.0 q
q174 92.0 1.0 q
q175 92.0 1.0 q
q176 93.0 1.0 q
q177 105.0 1.0 q
q178 110.0 1.0 q
q179 80.0 1.0 q
q180 132.0 1.0 q
q181 153.0 1.0 q
q183 299.0 1.0 q
q184 92.0 1.0 q
q185 59.0 1.0 q
q186 88.0 1.0 q
q187 111.0 1.0 q
q188 98.0 1.0 q
q189 65.0 1.0 q
q190 67.0 1.0 q
q191 61.0 1.0 q
q192 46.0 1.0 q
q194 70.0 1.0 q
q195 81.0 1.0 q
q196 89.0 1.0 q
q197 82.0 1.0 q
q198 115.0 1.0 q
q199 170.0 1.0 q
q200 167.0 1.0 q
q201 172.0 1.0 q
q202 188.0 1.0 q
q203 260.0 1.0 q
q204 200.0 1.0 q
q205 202.0 1.0 q
q206 247.0 1.0 q
q207 331.0 1.0 q
q208 366.0 1.0 q
q209 415.0 1.0 q
q210 427.0 1.0 q
q211 427.0 1.0 q
q212 392.0 1.0 q
q213 395.0 1.0 q
q214 513.0 1.0 q
q215 564.0 1.0 q
q216 568.0 1.0 q
q217 555.0 1.0 q
q218 490.0 1.0 q
q219 482.0 1.0 q
q220 496.0 1.0 q
q221 542.0 1.0 q
q222 562.0 1.0 q
q223 572.0 1.0 q
q225 555.0 1.0 q
q226 511.0 1.0 q
q227 469.0 1.0 q
q228 397.0 1.0 q
q229 380.0 1.0 q
q230 396.0 1.0 q
q231 402.0 1.0 q
q232 456.0 1.0 q
q233 501.0 1.0 q
q234 575.0 1.0 q
q235 484.0 1.0 q
q236 442.0 1.0 q
q237 418.0 1.0 q
q238 395.0 1.0 q
q239 322.0 1.0 q
q240 299.0 1.0 q
q241 270.0 1.0 q
q243 280.0 1.0 q
q244 263.0 1.0 q
q246 267.0 1.0 q
q247 313.0 1.0 q
q248 347.0 1.0 q
q249 365.0 1.0 q
q250 441.0 1.0 q
q251 456.0 1.0 q
q252 441.0 1.0 q
q253 414.0 1.0 q
q254 535.0 1.0 q
q255 689.0 1.0 q
q256 600.0 1.0 q
q257 652.0 1.0 q
q258 619.0 1.0 q
q259 584.0 1.0 q
q260 619.0 1.0 q
q261 673.0 1.0 q
q262 654.0 1.0 q
q263 720.0 1.0 q
q264 879.0 1.0 q
q265 846.0 1.0 q
q266 988.0 1.0 q
q267 1290.0 1.0 q
q268 1320.0 1.0 q
q269 1400.0 1.0 q
q270 1530.0 1.0 q
q271 1700.0 1.0 q
q272 1810.0 1.0 q
q273 1830.0 1.0 q
q275 1940.0 1.0 q
q276 1890.0 1.0 q
q277 1770.0 1.0 q
q278 1710.0 1.0 q
q279 1830.0 1.0 q
q280 2029.9999999999998 1.0 q
q281 2270.0 1.0 q
q282 2430.0 1.0 q
q283 2290.0 1.0 q
q284 2150.0 1.0 q
q285 2060.0 1.0 q
q286 2020.0 1.0 q
q287 2040.0 1.0 q
q288 2160.0 1.0 q
q289 2190.0 1.0 q
q290 2280.0 1.0 q
q291 2400.0 1.0 q
q292 2530.0 1.0 q
q293 2840.0 1.0 q
q294 3380.0 1.0 q
q295 3730.0 1.0 q
q297 3420.0 1.0 q
q298 2880.0 1.0 q
q299 2570.0 1.0 q
q300 2390.0 1.0 q
q301 2870.0 1.0 q
q302 3270.0 1.0 q
q303 3560.0 1.0 q
q304 3190.0 1.0 q
q305 2630.0 1.0 q
q306 2440.0 1.0 q
q307 2290.0 1.0 q
q308 2070.0 1.0 q
q309 1950.0 1.0 q
q310 1900.0 1.0 q
q311 1830.0 1.0 q
q312 1680.0 1.0 q
q313 1580.0 1.0 q
q314 1630.0 1.0 q
q315 1610.0 1.0 q
q317 1560.0 1.0 q
q318 1560.0 1.0 q
q319 1640.0 1.0 q
q320 1830.0 1.0 q
q321 2070.0 1.0 q
q322 2760.0 1.0 q
q323 3360.0 1.0 q
q324 3850.0 1.0 q
q325 4220.0 1.0 q
q326 5050.0 1.0 q
q327 5270.0 1.0 q
q328 5460.0 1.0 q
q329 5470.0 1.0 q
q330 5810.0 1.0 q
q331 6020.0 1.0 q
q333 5850.0 1.0 q
q334 5790.0 1.0 q
q335 5670.0 1.0 q
q337 4400.0 1.0 q
q338 3890.0 1.0 q
q339 3120.0 1.0 q
q340 2780.0 1.0 q
q341 2720.0 1.0 q
q342 2700.0 1.0 q
q343 2440.0 1.0 q
q344 2320.0 1.0 q
q345 2250.0 1.0 q
q346 2130.0 1.0 q
q347 2040.0 1.0 q
q348 1950.0 1.0 q
q349 1820.0 1.0 q
q350 1730.0 1.0 q
q351 1600.0 1.0 q
q352 1560.0 1.0 q
q353 1660.0 1.0 q
q354 1670.0 1.0 q
q355 1640.0 1.0 q
q356 1470.0 1.0 q
q357 1330.0 1.0 q
q358 1220.0 1.0 q
q359 1150.0 1.0 q
q360 1070.0 1.0 q
q361 999.0 1.0 q
q362 928.0 1.0 q
q363 876.0 1.0 q
q364 843.0 1.0 q
q365 769.0 1.0 q
q368 700.0 1.0 q
q369 664.0 1.0 q
q370 626.0 1.0 q
q371 593.0 1.0 q
q372 605.0 1.0 q
q373 615.0 1.0 q
q374 565.0 1.0 q
q375 555.0 1.0 q
q376 532.0 1.0 q
q377 496.0 1.0 q
q378 482.0 1.0 q
q379 453.0 1.0 q
q380 436.0 1.0 q
q381 399.0 1.0 q
q382 331.0 1.0 q
q383 294.0 1.0 q
q384 285.0 1.0 q
q385 286.0 1.0 q
q386 292.0 1.0 q
q387 283.0 1.0 q
q388 286.0 1.0 q
q389 256.0 1.0 q
q390 203.0 1.0 q
q391 160.0 1.0 q
q392 139.0 1.0 q
q393 142.0 1.0 q
q394 145.0 1.0 q
q395 137.0 1.0 q
q396 144.0 1.0 q
q397 137.0 1.0 q
q399 110.0 1.0 q
q400 85.0 1.0 q
q401 82.0 1.0 q
q402 59.0 1.0 q
q403 38.0 1.0 q
q404 38.0 1.0 q
q405 38.0 1.0 q
q406 36.0 1.0 q
q407 36.0 1.0 q
q408 34.0 1.0 q
q409 35.0 1.0 q
q410 34.0 1.0 q
q411 33.0 1.0 q
q412 37.0 1.0 q
q413 54.0 1.0 q
q414 66.0 1.0 q
q415 99.0 1.0 q
q416 63.0 1.0 q
q417 35.0 1.0 q
q418 35.0 1.0 q
q419 35.0 1.0 q
q420 35.0 1.0 q
q421 33.0 1.0 q
q422 33.0 1.0 q
q423 32.0 1.0 q
q424 24.0 1.0 q
q426 16.0 1.0 q
q427 13.0 1.0 q
q428 10.0 1.0 q
q429 5.0 1.0 q
q430 7.0 1.0 q
q431 5.0 1.0 q
q432 5.0 1.0 q
q433 5.0 1.0 q
q434 5.0 1.0 q
q435 5.0 1.0 q
q436 6.0 1.0 q
q437 7.0 1.0 q
q438 12.0 1.0 q
q439 5.0 1.0 q
q440 5.0 1.0 q
q441 5.0 1.0 q
q442 5.0 1.0 q
q443 5.0 1.0 q
q444 5.0 1.0 q
q445 8.0 1.0 q
q446 5.0 1.0 q
q447 18.0 1.0 q
q448 15.0 1.0 q
q449 11.0 1.0 q
q451 19.0 1.0 q
q452 14.0 1.0 q
q453 13.0 1.0 q
q454 8.0 1.0 q
q455 10.0 1.0 q
q456 12.0 1.0 q
q457 13.0 1.0 q
q458 9.0 1.0 q
q459 13.0 1.0 q
q460 18.0 1.0 q
q461 18.0 1.0 q
q462 18.0 1.0 q
q463 18.0 1.0 q
q464 14.0 1.0 q
q465 14.0 1.0 q
q466 11.0 1.0 q
q467 8.0 1.0 q
q468 12.0 1.0 q
q469 13.0 1.0 q
q470 20.0 1.0 q
q471 22.0 1.0 q
q472 13.0 1.0 q
q473 10.0 1.0 q
q475 8.0 1.0 q
q476 9.0 1.0 q
q477 13.0 1.0 q
q478 14.0 1.0 q
q479 14.0 1.0 q
q480 12.0 1.0 q
q481 14.0 1.0 q
q482 12.0 1.0 q
q483 12.0 1.0 q
q484 12.0 1.0 q
q485 17.0 1.0 q
q486 11.0 1.0 q
q487 24.0 1.0 q
q488 29.0 1.0 q
q489 19.0 1.0 q
q491 22.0 1.0 q
q492 28.0 1.0 q
q493 15.0 1.0 q
q494 14.0 1.0 q
q495 13.0 1.0 q
q496 15.0 1.0 q
q497 16.0 1.0 q
q498 25.0 1.0 q
q499 16.0 1.0 q
q500 15.0 1.0 q
q502 39.0 1.0 q
q503 25.0 1.0 q
q504 30.0 1.0 q
q505 17.0 1.0 q
q506 17.0 1.0 q
q507 24.0 1.0 q
q508 17.0 1.0 q
q509 16.0 1.0 q
q510 15.0 1.0 q
q511 15.0 1.0 q
q512 20.0 1.0 q
q513 28.0 1.0 q
q514 24.0 1.0 q
q515 11.0 1.0 q
q516 11.0 1.0 q
q517 11.0 1.0 q
q518 11.0 1.0 q
q519 13.0 1.0 q
q520 13.0 1.0 q
q521 11.0 1.0 q
q522 14.0 1.0 q
q523 11.0 1.0 q
q524 24.0 1.0 q
q525 24.0 1.0 q
q526 23.0 1.0 q
q527 25.0 1.0 q
q528 28.0 1.0 q
q529 22.0 1.0 q
q530 23.0 1.0 q
q531 25.0 1.0 q
q532 24.0 1.0 q
q533 20.0 1.0 q
q534 23.0 1.0 q
q535 22.0 1.0 q
q536 20.0 1.0 q
q537 16.0 1.0 q
q538 17.0 1.0 q
q539 14.0 1.0 q
q540 15.0 1.0 q
q541 12.0 1.0 q
q542 14.0 1.0 q
q543 17.0 1.0 q
q544 18.0 1.0 q
q545 19.0 1.0 q
q546 19.0 1.0 q
q547 21.0 1.0 q
q548 22.0 1.0 q
q549 23.0 1.0 q
q550 22.0 1.0 q
q551 27.0 1.0 q
q552 26.0 1.0 q
q553 25.0 1.0 q
q554 25.0 1.0 q
q555 26.0 1.0 q
q556 24.0 1.0 q
q557 26.0 1.0 q
q558 25.0 1.0 q
q559 27.0 1.0 q
q560 26.0 1.0 q
q561 26.0 1.0 q
q562 25.0 1.0 q
q563 25.0 1.0 q
q564 28.0 1.0 q
q565 39.0 1.0 q
q567 681.0 1.0 q
q568 448.0 1.0 q
q569 348.0 1.0 q
q570 336.0 1.0 q
q571 349.0 1.0 q
q572 332.0 1.0 q
q573 384.0 1.0 q
q574 370.0 1.0 q
q575 360.0 1.0 q
q576 338.0 1.0 q
q577 377.0 1.0 q
q578 411.0 1.0 q
q579 389.0 1.0 q
q580 424.0 1.0 q
q581 455.0 1.0 q
q582 493.0 1.0 q
q583 483.0 1.0 q
q584 454.0 1.0 q
q585 454.0 1.0 q
q586 418.0 1.0 q
q587 388.0 1.0 q
q588 419.0 1.0 q
q589 439.0 1.0 q
q590 433.0 1.0 q
q592 423.0 1.0 q
q593 458.0 1.0 q
q594 420.0 1.0 q
q595 433.0 1.0 q
q596 442.0 1.0 q
q597 422.0 1.0 q
q598 419.0 1.0 q
q599 467.0 1.0 q
q600 528.0 1.0 q
q601 571.0 1.0 q
q602 616.0 1.0 q
q603 529.0 1.0 q
q604 603.0 1.0 q
q605 559.0 1.0 q
q606 532.0 1.0 q
q607 532.0 1.0 q
q608 525.0 1.0 q
q609 560.0 1.0 q
q610 568.0 1.0 q
q611 554.0 1.0 q
q612 547.0 1.0 q
q613 520.0 1.0 q
q614 509.0 1.0 q
q615 514.0 1.0 q
q616 506.0 1.0 q
q617 502.0 1.0 q
q618 523.0 1.0 q
q619 567.0 1.0 q
q620 646.0 1.0 q
q621 646.0 1.0 q
q622 633.0 1.0 q
q623 578.0 1.0 q
q624 593.0 1.0 q
q625 655.0 1.0 q
q626 671.0 1.0 q
q627 625.0 1.0 q
q628 634.0 1.0 q
q629 708.0 1.0 q
q631 695.0 1.0 q
q632 639.0 1.0 q
q633 620.0 1.0 q
q634 637.0 1.0 q
q635 632.0 1.0 q
q636 553.0 1.0 q
q637 464.0 1.0 q
q638 451.0 1.0 q
q639 471.0 1.0 q
q641 475.0 1.0 q
q642 514.0 1.0 q
q643 513.0 1.0 q
q644 606.0 1.0 q
q645 630.0 1.0 q
q646 561.0 1.0 q
q647 614.0 1.0 q
q648 763.0 1.0 q
q649 882.0 1.0 q
q650 931.0 1.0 q
q651 1000.0 1.0 q
q652 1050.0 1.0 q
q653 1120.0 1.0 q
q654 1310.0 1.0 q
q655 1390.0 1.0 q
q656 1550.0 1.0 q
q657 1760.0 1.0 q
q658 1770.0 1.0 q
q659 1660.0 1.0 q
q660 1650.0 1.0 q
q661 1700.0 1.0 q
q662 1670.0 1.0 q
q663 1570.0 1.0 q
q664 1580.0 1.0 q
q665 1610.0 1.0 q
q667 1950.0 1.0 q
q668 1710.0 1.0 q
q669 1680.0 1.0 q
q670 1710.0 1.0 q
q671 1840.0 1.0 q
q672 2020.0 1.0 q
q673 2240.0 1.0 q
q675 1950.0 1.0 q
q676 1780.0 1.0 q
q677 1640.0 1.0 q
q678 1520.0 1.0 q
q679 1360.0 1.0 q
q680 1320.0 1.0 q
q681 1470.0 1.0 q
q682 1750.0 1.0 q
q683 1830.0 1.0 q
q684 1740.0 1.0 q
q685 1640.0 1.0 q
q686 1690.0 1.0 q
q687 1790.0 1.0 q
q688 1830.0 1.0 q
q689 1760.0 1.0 q
q690 1690.0 1.0 q
q691 1620.0 1.0 q
q692 1690.0 1.0 q
q693 1720.0 1.0 q
q694 1530.0 1.0 q
q695 1510.0 1.0 q
q696 1480.0 1.0 q
q697 1410.0 1.0 q
q698 1460.0 1.0 q
q699 1440.0 1.0 q
q700 1420.0 1.0 q
q702 1370.0 1.0 q
q703 1210.0 1.0 q
q704 1100.0 1.0 q
q705 1080.0 1.0 q
q706 1140.0 1.0 q
q707 1150.0 1.0 q
q708 1090.0 1.0 q
q709 1040.0 1.0 q
q710 954.0 1.0 q
q711 871.0 1.0 q
q712 836.0 1.0 q
q713 824.0 1.0 q
q714 805.0 1.0 q
q715 786.0 1.0 q
q716 833.0 1.0 q
q717 846.0 1.0 q
q718 824.0 1.0 q
q719 788.0 1.0 q
q720 736.0 1.0 q
q721 687.0 1.0 q
q722 643.0 1.0 q
q723 614.0 1.0 q
q724 581.0 1.0 q
q725 590.0 1.0 q
q726 655.0 1.0 q
q727 571.0 1.0 q
q728 482.0 1.0 q
q729 414.0 1.0 q
q730 384.0 1.0 q
q732 263.0 1.0 q
q733 229.0 1.0 q
q734 163.0 1.0 q
q735 143.0 1.0 q
q736 131.0 1.0 q
q737 108.0 1.0 q
q738 94.0 1.0 q
q739 82.0 1.0 q
q740 71.0 1.0 q
q741 61.0 1.0 q
q742 53.0 1.0 q
q743 39.0 1.0 q
q744 41.0 1.0 q
q745 126.0 1.0 q
q746 174.0 1.0 q
q747 146.0 1.0 q
q748 140.0 1.0 q
q749 129.0 1.0 q
q750 116.0 1.0 q
q751 183.0 1.0 q
q752 80.0 1.0 q
q753 83.0 1.0 q
q754 137.0 1.0 q
q755 136.0 1.0 q
q756 131.0 1.0 q
q757 142.0 1.0 q
q759 128.0 1.0 q
q760 122.0 1.0 q
q761 114.0 1.0 q
q762 118.0 1.0 q
q763 85.0 1.0 q
q764 85.0 1.0 q
q766 83.0 1.0 q
q767 85.0 1.0 q
q768 94.0 1.0 q
q769 50.0 1.0 q
q770 28.0 1.0 q
q771 28.0 1.0 q
q772 32.0 1.0 q
q773 28.0 1.0 q
q774 22.0 1.0 q
q775 20.0 1.0 q
q776 20.0 1.0 q
q777 20.0 1.0 q
q778 18.0 1.0 q
q779 29.0 1.0 q
q780 20.0 1.0 q
q781 20.0 1.0 q
q782 19.0 1.0 q
q783 18.0 1.0 q
q784 18.0 1.0 q
q785 19.0 1.0 q
q786 31.0 1.0 q
q787 22.0 1.0 q
q788 18.0 1.0 q
q789 19.0 1.0 q
q791 20.0 1.0 q
q792 22.0 1.0 q
q793 28.0 1.0 q
q794 15.0 1.0 q
q796 10.0 1.0 q
q797 10.0 1.0 q
q798 20.0 1.0 q
q799 16.0 1.0 q
q800 31.0 1.0 q
q801 30.0 1.0 q
q802 29.0 1.0 q
q803 28.0 1.0 q
q804 27.0 1.0 q
q805 31.0 1.0 q
q806 29.0 1.0 q
q807 32.0 1.0 q
q808 27.0 1.0 q
q809 29.0 1.0 q
q810 35.0 1.0 q
q811 22.0 1.0 q
q812 30.0 1.0 q
q813 28.0 1.0 q
q814 34.0 1.0 q
q815 25.0 1.0 q
q816 25.0 1.0 q
q817 22.0 1.0 q
q818 23.0 1.0 q
q819 23.0 1.0 q
q820 30.0 1.0 q
q821 29.0 1.0 q
q822 26.0 1.0 q
q823 23.0 1.0 q
q842 106.0 1.0 q
q843 106.0 1.0 q
q844 106.0 1.0 q
q845 106.0 1.0 q
q846 106.0 1.0 q
q847 31.0 1.0 q
q848 33.0 1.0 q
q849 42.0 1.0 q
q850 40.0 1.0 q
q851 32.0 1.0 q
q852 35.0 1.0 q
q853 30.0 1.0 q
q854 30.0 1.0 q
q855 33.0 1.0 q
q856 34.0 1.0 q
q857 33.0 1.0 q
q858 34.0 1.0 q
q859 33.0 1.0 q
q860 36.0 1.0 q
q861 40.0 1.0 q
q862 31.0 1.0 q
q863 35.0 1.0 q
q864 68.0 1.0 q
q865 466.0 1.0 q
q866 271.0 1.0 q
q867 237.0 1.0 q
q868 212.0 1.0 q
q869 166.0 1.0 q
q870 162.0 1.0 q
q871 197.0 1.0 q
q872 176.0 1.0 q
q873 154.0 1.0 q
q874 161.0 1.0 q
q875 247.0 1.0 q
q876 1290.0 1.0 q
q878 2260.0 1.0 q
q879 1250.0 1.0 q
q880 971.0 1.0 q
q881 903.0 1.0 q
q882 827.0 1.0 q
q883 760.0 1.0 q
q884 775.0 1.0 q
q885 709.0 1.0 q
q887 2160.0 1.0 q
q888 1510.0 1.0 q
q889 1260.0 1.0 q
q890 1110.0 1.0 q
q891 1030.0 1.0 q
q892 1030.0 1.0 q
q893 999.0 1.0 q
q894 950.0 1.0 q
q895 942.0 1.0 q
q896 909.0 1.0 q
q897 917.0 1.0 q
q898 902.0 1.0 q
q899 883.0 1.0 q
q900 830.0 1.0 q
q901 853.0 1.0 q
q902 939.0 1.0 q
q903 1040.0 1.0 q
q904 1080.0 1.0 q
q905 1180.0 1.0 q
q906 1260.0 1.0 q
q907 1400.0 1.0 q
q908 1540.0 1.0 q
q909 1460.0 1.0 q
q910 1300.0 1.0 q
q911 1160.0 1.0 q
q912 1070.0 1.0 q
q913 941.0 1.0 q
q914 824.0 1.0 q
q915 787.0 1.0 q
q916 739.0 1.0 q
q917 722.0 1.0 q
q918 684.0 1.0 q
q919 674.0 1.0 q
q920 660.0 1.0 q
q921 657.0 1.0 q
q922 641.0 1.0 q
q923 613.0 1.0 q
q925 673.0 1.0 q
q926 720.0 1.0 q
q927 759.0 1.0 q
q928 819.0 1.0 q
q929 814.0 1.0 q
q930 819.0 1.0 q
q931 807.0 1.0 q
q932 894.0 1.0 q
q933 1160.0 1.0 q
q934 876.0 1.0 q
q935 1180.0 1.0 q
q936 1280.0 1.0 q
q937 1110.0 1.0 q
q938 974.0 1.0 q
q939 990.0 1.0 q
q940 1020.0 1.0 q
q941 1170.0 1.0 q
q942 1160.0 1.0 q
q943 1100.0 1.0 q
q944 1080.0 1.0 q
q945 1030.0 1.0 q
q946 1020.0 1.0 q
q947 1000.0 1.0 q
q949 969.0 1.0 q
q950 970.0 1.0 q
q951 999.0 1.0 q
q952 1050.0 1.0 q
q953 1240.0 1.0 q
q954 1440.0 1.0 q
q955 1550.0 1.0 q
q956 1640.0 1.0 q
q957 1660.0 1.0 q
q958 1650.0 1.0 q
q959 1640.0 1.0 q
q960 1600.0 1.0 q
q961 1590.0 1.0 q
q962 1510.0 1.0 q
q963 1490.0 1.0 q
q964 1440.0 1.0 q
q965 1460.0 1.0 q
q966 1440.0 1.0 q
q967 1530.0 1.0 q
q968 1620.0 1.0 q
q969 1690.0 1.0 q
q970 1760.0 1.0 q
q971 1840.0 1.0 q
q972 1790.0 1.0 q
q973 1830.0 1.0 q
q975 2009.9999999999998 1.0 q
q976 2060.0 1.0 q
q977 2150.0 1.0 q
q978 2110.0 1.0 q
q979 1990.0 1.0 q
q980 1930.0 1.0 q
q981 1840.0 1.0 q
q982 1820.0 1.0 q
q983 1780.0 1.0 q
q984 1710.0 1.0 q
q985 1620.0 1.0 q
q986 1660.0 1.0 q
q987 1650.0 1.0 q
q988 1650.0 1.0 q
q989 1600.0 1.0 q
q990 1580.0 1.0 q
q991 1510.0 1.0 q
q992 1510.0 1.0 q
q993 1470.0 1.0 q
q995 1460.0 1.0 q
q996 1500.0 1.0 q
q997 1530.0 1.0 q
q998 1730.0 1.0 q
q999 1910.0 1.0 q
q1000 2009.9999999999998 1.0 q
q1001 2220.0 1.0 q
q1002 2330.0 1.0 q
q1003 2410.0 1.0 q
q1005 2720.0 1.0 q
q1006 2730.0 1.0 q
q1007 2500.0 1.0 q
q1008 2410.0 1.0 q
q1009 2450.0 1.0 q
q1010 2450.0 1.0 q
q1011 2360.0 1.0 q
q1013 2370.0 1.0 q
q1014 2570.0 1.0 q
q1015 2610.0 1.0 q
q1016 2760.0 1.0 q
q1017 3640.0 1.0 q
q1018 4480.0 1.0 q
q1019 5180.0 1.0 q
q1020 5770.0 1.0 q
q1022 6890.0 1.0 q
q1023 6240.0 1.0 q
q1024 5280.0 1.0 q
q1025 4460.0 1.0 q
q1026 3960.0 1.0 q
q1027 3680.0 1.0 q
q1028 3530.0 1.0 q
q1029 3430.0 1.0 q
q1030 3140.0 1.0 q
q1031 3370.0 1.0 q
q1032 3650.0 1.0 q
q1033 3580.0 1.0 q
q1034 3870.0 1.0 q
q1035 4730.0 1.0 q
q1036 5120.0 1.0 q
q1037 4910.0 1.0 q
q1038 4240.0 1.0 q
q1039 4500.0 1.0 q
q1040 4790.0 1.0 q
q1041 4860.0 1.0 q
q1042 4530.0 1.0 q
q1043 4440.0 1.0 q
q1044 4150.0 1.0 q
q1045 3930.0 1.0 q
q1046 4350.0 1.0 q
q1047 4840.0 1.0 q
q1048 5360.0 1.0 q
q1049 5820.0 1.0 q
q1050 6620.0 1.0 q
q1051 7250.0 1.0 q
q1052 8450.0 1.0 q
q1053 8960.0 1.0 q
q1054 8700.0 1.0 q
q1055 8580.0 1.0 q
q1056 8730.0 1.0 q
q1065 7990.0 1.0 q
q1066 6920.0 1.0 q
q1067 6600.0 1.0 q
q1068 6410.0 1.0 q
q1069 5880.0 1.0 q
q1070 5430.0 1.0 q
q1071 5140.0 1.0 q
q1072 5300.0 1.0 q
q1073 5050.0 1.0 q
q1074 4950.0 1.0 q
q1075 4880.0 1.0 q
q1076 5220.0 1.0 q
q1077 6160.0 1.0 q
q1078 6970.0 1.0 q
q1080 6690.0 1.0 q
q1081 6260.0 1.0 q
q1082 6080.0 1.0 q
q1083 5810.0 1.0 q
q1084 5090.0 1.0 q
q1085 4480.0 1.0 q
q1086 4080.0 1.0 q
q1087 3660.0 1.0 q
q1088 3220.0 1.0 q
q1089 2910.0 1.0 q
q1090 2650.0 1.0 q
q1091 2610.0 1.0 q
q1092 2680.0 1.0 q
q1093 2700.0 1.0 q
q1094 2530.0 1.0 q
q1095 2370.0 1.0 q
q1098 2280.0 1.0 q
q1099 2210.0 1.0 q
q1100 2190.0 1.0 q
q1101 2090.0 1.0 q
q1102 2020.0 1.0 q
q1103 1970.0 1.0 q
q1104 1860.0 1.0 q
q1105 1780.0 1.0 q
q1106 1730.0 1.0 q
q1107 1690.0 1.0 q
q1108 1660.0 1.0 q
q1109 1630.0 1.0 q
q1110 1610.0 1.0 q
q1111 1540.0 1.0 q
q1112 1470.0 1.0 q
q1113 1410.0 1.0 q
q1114 1330.0 1.0 q
q1115 1230.0 1.0 q
q1116 1130.0 1.0 q
q1117 1080.0 1.0 q
q1118 1080.0 1.0 q
q1119 986.0 1.0 q
q1120 887.0 1.0 q
q1121 805.0 1.0 q
q1122 791.0 1.0 q
q1123 818.0 1.0 q
q1124 824.0 1.0 q
q1125 757.0 1.0 q
q1126 738.0 1.0 q
q1127 694.0 1.0 q
q1129 669.0 1.0 q
q1130 628.0 1.0 q
q1131 574.0 1.0 q
q1132 504.0 1.0 q
q1133 501.0 1.0 q
q1134 436.0 1.0 q
q1135 398.0 1.0 q
q1136 343.0 1.0 q
q1137 340.0 1.0 q
q1138 272.0 1.0 q
q1139 290.0 1.0 q
q1140 290.0 1.0 q
q1141 290.0 1.0 q
q1142 290.0 1.0 q
q1143 290.0 1.0 q
q1144 290.0 1.0 q
q1147 255.0 1.0 q
q1148 253.0 1.0 q
q1149 223.0 1.0 q
q1150 220.0 1.0 q
q1151 220.0 1.0 q
q1152 220.0 1.0 q
q1153 255.0 1.0 q
q1154 239.0 1.0 q
q1155 225.0 1.0 q
q1157 205.0 1.0 q
q1158 203.0 1.0 q
q1159 197.0 1.0 q
q1160 182.0 1.0 q
q1161 191.0 1.0 q
q1162 174.0 1.0 q
q1163 167.0 1.0 q
q1164 174.0 1.0 q
q1165 184.0 1.0 q
q1166 174.0 1.0 q
q1167 170.0 1.0 q
q1168 165.0 1.0 q
q1169 161.0 1.0 q
q1170 164.0 1.0 q
q1171 162.0 1.0 q
q1172 161.0 1.0 q
q1173 159.0 1.0 q
q1174 158.0 1.0 q
q1175 137.0 1.0 q
q1176 118.0 1.0 q
q1177 116.0 1.0 q
q1178 112.0 1.0 q
q1179 107.0 1.0 q
q1180 92.0 1.0 q
q1181 69.0 1.0 q
q1182 65.0 1.0 q
q1183 60.0 1.0 q
q1184 51.0 1.0 q
q1185 46.0 1.0 q
q1187 38.0 1.0 q
q1188 39.0 1.0 q
q1189 40.0 1.0 q
q1190 40.0 1.0 q
q1191 40.0 1.0 q
q1192 55.0 1.0 q
q1193 53.0 1.0 q
q1194 39.0 1.0 q
q1195 43.0 1.0 q
q1196 54.0 1.0 q
q1197 58.0 1.0 q
q1198 64.0 1.0 q
q1199 52.0 1.0 q
q1200 63.0 1.0 q
q1201 71.0 1.0 q
q1202 66.0 1.0 q
q1203 59.0 1.0 q
q1204 70.0 1.0 q
q1205 73.0 1.0 q
q1206 78.0 1.0 q
q1207 68.0 1.0 q
q1208 64.0 1.0 q
q1209 41.0 1.0 q
q1210 39.0 1.0 q
q1211 38.0 1.0 q
q1212 38.0 1.0 q
q1213 47.0 1.0 q
q1214 50.0 1.0 q
q1215 55.0 1.0 q
q1216 53.0 1.0 q
q1217 40.0 1.0 q
q1245 151.0 1.0 q
q1247 162.0 1.0 q
q1248 166.0 1.0 q
q1249 160.0 1.0 q
q1250 141.0 1.0 q
q1251 123.0 1.0 q
q1252 117.0 1.0 q
q1253 120.0 1.0 q
q1254 149.0 1.0 q
q1255 142.0 1.0 q
q1256 130.0 1.0 q
q1257 141.0 1.0 q
q1258 143.0 1.0 q
q1260 117.0 1.0 q
q1261 138.0 1.0 q
q1262 218.0 1.0 q
q1263 242.0 1.0 q
q1264 265.0 1.0 q
q1265 349.0 1.0 q
q1266 351.0 1.0 q
q1267 359.0 1.0 q
q1268 369.0 1.0 q
q1270 374.0 1.0 q
q1271 348.0 1.0 q
q1272 336.0 1.0 q
q1273 327.0 1.0 q
q1274 308.0 1.0 q
q1275 299.0 1.0 q
q1276 291.0 1.0 q
q1277 284.0 1.0 q
q1278 283.0 1.0 q
q1279 289.0 1.0 q
q1280 283.0 1.0 q
q1281 298.0 1.0 q
q1282 297.0 1.0 q
q1283 336.0 1.0 q
q1284 338.0 1.0 q
q1285 377.0 1.0 q
q1287 390.0 1.0 q
q1288 381.0 1.0 q
q1289 386.0 1.0 q
q1290 394.0 1.0 q
q1291 406.0 1.0 q
q1292 371.0 1.0 q
q1293 357.0 1.0 q
q1294 373.0 1.0 q
q1295 365.0 1.0 q
q1296 373.0 1.0 q
q1297 391.0 1.0 q
q1298 371.0 1.0 q
q1299 370.0 1.0 q
q1300 378.0 1.0 q
q1301 270.0 1.0 q
q1302 189.0 1.0 q
q1303 173.0 1.0 q
q1304 163.0 1.0 q
q1305 173.0 1.0 q
q1306 163.0 1.0 q
q1307 160.0 1.0 q
q1308 157.0 1.0 q
q1309 152.0 1.0 q
q1310 143.0 1.0 q
q1311 155.0 1.0 q
q1312 161.0 1.0 q
q1313 173.0 1.0 q
q1314 181.0 1.0 q
q1315 175.0 1.0 q
q1316 168.0 1.0 q
q1317 159.0 1.0 q
q1318 159.0 1.0 q
q1319 168.0 1.0 q
q1320 162.0 1.0 q
q1321 153.0 1.0 q
q1322 140.0 1.0 q
q1323 143.0 1.0 q
q1324 130.0 1.0 q
q1325 127.0 1.0 q
q1326 123.0 1.0 q
q1327 130.0 1.0 q
q1328 124.0 1.0 q
q1329 122.0 1.0 q
q1330 120.0 1.0 q
q1331 113.0 1.0 q
q1332 140.0 1.0 q
q1333 121.0 1.0 q
q1334 124.0 1.0 q
q1335 124.0 1.0 q
q1336 107.0 1.0 q
q1337 93.0 1.0 q
q1338 85.0 1.0 q
q1340 91.0 1.0 q
q1341 102.0 1.0 q
q1342 107.0 1.0 q
q1343 101.0 1.0 q
q1345 100.0 1.0 q
q1346 102.0 1.0 q
q1347 113.0 1.0 q
q1348 114.0 1.0 q
q1349 127.0 1.0 q
q1350 126.0 1.0 q
q1351 127.0 1.0 q
q1352 137.0 1.0 q
q1353 161.0 1.0 q
q1354 122.0 1.0 q
q1355 134.0 1.0 q
q1356 136.0 1.0 q
q1357 129.0 1.0 q
q1358 108.0 1.0 q
q1359 110.0 1.0 q
q1360 128.0 1.0 q
q1361 134.0 1.0 q
q1362 113.0 1.0 q
q1363 133.0 1.0 q
q1364 148.0 1.0 q
q1365 124.0 1.0 q
q1366 158.0 1.0 q
q1367 128.0 1.0 q
q1368 214.0 1.0 q
q1370 229.0 1.0 q
q1371 134.0 1.0 q
q1372 193.0 1.0 q
q1373 226.0 1.0 q
q1374 254.0 1.0 q
q1375 288.0 1.0 q
q1376 233.0 1.0 q
q1377 150.0 1.0 q
q1378 127.0 1.0 q
q1379 177.0 1.0 q
q1380 213.0 1.0 q
q1381 264.0 1.0 q
q1382 298.0 1.0 q
q1383 323.0 1.0 q
q1384 344.0 1.0 q
q1385 301.0 1.0 q
q1386 237.0 1.0 q
q1387 301.0 1.0 q
q1389 383.0 1.0 q
q1390 313.0 1.0 q
q1391 240.0 1.0 q
q1392 273.0 1.0 q
q1393 254.0 1.0 q
q1394 208.0 1.0 q
q1395 170.0 1.0 q
q1396 139.0 1.0 q
q1397 146.0 1.0 q
q1398 151.0 1.0 q
q1399 169.0 1.0 q
q1400 223.0 1.0 q
q1401 196.0 1.0 q
q1402 169.0 1.0 q
q1403 160.0 1.0 q
q1404 196.0 1.0 q
q1405 225.0 1.0 q
q1406 152.0 1.0 q
q1407 131.0 1.0 q
q1408 139.0 1.0 q
q1409 126.0 1.0 q
q1410 135.0 1.0 q
q1411 141.0 1.0 q
q1412 133.0 1.0 q
q1413 127.0 1.0 q
q1414 132.0 1.0 q
q1415 136.0 1.0 q
q1416 140.0 1.0 q
q1417 172.0 1.0 q
q1418 216.0 1.0 q
q1419 172.0 1.0 q
q1420 137.0 1.0 q
q1421 100.0 1.0 q
q1422 135.0 1.0 q
q1424 93.0 1.0 q
q1425 44.0 1.0 q
q1426 45.0 1.0 q
q1427 47.0 1.0 q
q1429 64.0 1.0 q
q1430 105.0 1.0 q
q1431 45.0 1.0 q
q1432 51.0 1.0 q
q1433 96.0 1.0 q
q1434 92.0 1.0 q
q1435 118.0 1.0 q
q1436 125.0 1.0 q
q1437 129.0 1.0 q
q1438 118.0 1.0 q
q1439 119.0 1.0 q
q1440 123.0 1.0 q
q1441 126.0 1.0 q
q1442 95.0 1.0 q
q1443 81.0 1.0 q
q1444 115.0 1.0 q
q1445 108.0 1.0 q
q1447 140.0 1.0 q
q1448 52.0 1.0 q
q1449 39.0 1.0 q
q1450 38.0 1.0 q
q1451 63.0 1.0 q
q1452 35.0 1.0 q
q1453 24.0 1.0 q
q1454 23.0 1.0 q
q1455 26.0 1.0 q
q1456 28.0 1.0 q
q1457 21.0 1.0 q
q1458 16.0 1.0 q
q1460 33.0 1.0 q
q1461 30.0 1.0 q
q1462 30.0 1.0 q
q1463 25.0 1.0 q
q1464 23.0 1.0 q
q1466 29.0 1.0 q
q1467 26.0 1.0 q
q1468 27.0 1.0 q
q1469 26.0 1.0 q
q1470 25.0 1.0 q
q1471 19.0 1.0 q
q1472 13.0 1.0 q
q1473 16.0 1.0 q
q1474 23.0 1.0 q
q1475 23.0 1.0 q
q1476 23.0 1.0 q
q1477 32.0 1.0 q
q1478 28.0 1.0 q
q1479 16.0 1.0 q
q1480 22.0 1.0 q
q1481 32.0 1.0 q
q1482 29.0 1.0 q
q1483 29.0 1.0 q
q1484 29.0 1.0 q
q1485 27.0 1.0 q
q1486 13.0 1.0 q
q1487 15.0 1.0 q
q1488 34.0 1.0 q
q1489 30.0 1.0 q
q1490 27.0 1.0 q
q1491 34.0 1.0 q
q1492 25.0 1.0 q
q1493 14.0 1.0 q
q1494 14.0 1.0 q
q1495 25.0 1.0 q
q1496 27.0 1.0 q
q1497 24.0 1.0 q
q1498 25.0 1.0 q
q1499 24.0 1.0 q
q1500 18.0 1.0 q
q1501 20.0 1.0 q
q1502 24.0 1.0 q
q1503 25.0 1.0 q
q1504 21.0 1.0 q
q1505 22.0 1.0 q
q1506 22.0 1.0 q
q1507 19.0 1.0 q
q1508 21.0 1.0 q
q1509 22.0 1.0 q
q1510 23.0 1.0 q
q1511 22.0 1.0 q
q1512 26.0 1.0 q
q1513 13.0 1.0 q
q1514 8.0 1.0 q
q1515 13.0 1.0 q
q1516 15.0 1.0 q
q1517 15.0 1.0 q
q1518 15.0 1.0 q
q1519 15.0 1.0 q
q1520 15.0 1.0 q
q1522 12.0 1.0 q
q1523 13.0 1.0 q
q1524 12.0 1.0 q
q1525 13.0 1.0 q
q1526 13.0 1.0 q
q1527 11.0 1.0 q
q1528 7.0 1.0 q
q1529 6.0 1.0 q
q1530 6.0 1.0 q
q1531 6.0 1.0 q
q1532 7.0 1.0 q
q1533 6.0 1.0 q
q1534 7.0 1.0 q
q1535 7.0 1.0 q
q1536 6.0 1.0 q
q1537 6.0 1.0 q
q1538 7.0 1.0 q
q1539 7.0 1.0 q
q1540 5.0 1.0 q
q1541 5.0 1.0 q
q1542 5.0 1.0 q
q1543 7.0 1.0 q
q1544 8.0 1.0 q
q1545 15.0 1.0 q
q1546 9.0 1.0 q
q1547 5.0 1.0 q
q1548 5.0 1.0 q
q1549 7.0 1.0 q
q1550 5.0 1.0 q
q1551 5.0 1.0 q
q1578 44.0 1.0 q
q1579 58.0 1.0 q
q1580 65.0 1.0 q
q1581 53.0 1.0 q
q1582 40.0 1.0 q
q1583 31.0 1.0 q
q1584 36.0 1.0 q
q1585 33.0 1.0 q
q1586 30.0 1.0 q
q1587 27.0 1.0 q
q1588 27.0 1.0 q
q1589 27.0 1.0 q
q1590 29.0 1.0 q
q1591 28.0 1.0 q
q1592 27.0 1.0 q
q1593 26.0 1.0 q
q1594 27.0 1.0 q
q1595 31.0 1.0 q
q1596 31.0 1.0 q
q1598 36.0 1.0 q
q1599 34.0 1.0 q
q1600 37.0 1.0 q
q1601 34.0 1.0 q
q1602 37.0 1.0 q
q1603 34.0 1.0 q
q1604 36.0 1.0 q
q1605 36.0 1.0 q
q1606 36.0 1.0 q
q1607 38.0 1.0 q
q1608 36.0 1.0 q
q1609 35.0 1.0 q
q1610 39.0 1.0 q
q1611 36.0 1.0 q
q1612 38.0 1.0 q
q1613 37.0 1.0 q
q1614 37.0 1.0 q
q1615 39.0 1.0 q
q1616 40.0 1.0 q
q1617 41.0 1.0 q
q1618 42.0 1.0 q
q1619 42.0 1.0 q
q1620 42.0 1.0 q
q1621 42.0 1.0 q
q1622 47.0 1.0 q
q1623 43.0 1.0 q
q1625 48.0 1.0 q
q1626 34.0 1.0 q
q1627 33.0 1.0 q
q1628 34.0 1.0 q
q1629 39.0 1.0 q
q1630 37.0 1.0 q
q1631 39.0 1.0 q
q1632 39.0 1.0 q
q1633 45.0 1.0 q
q1634 41.0 1.0 q
q1635 35.0 1.0 q
q1636 25.0 1.0 q
q1637 17.0 1.0 q
q1638 17.0 1.0 q
q1639 18.0 1.0 q
q1640 22.0 1.0 q
q1641 27.0 1.0 q
q1642 27.0 1.0 q
q1643 33.0 1.0 q
q1644 41.0 1.0 q
q1645 27.0 1.0 q
q1646 28.0 1.0 q
q1647 30.0 1.0 q
q1648 28.0 1.0 q
q1649 27.0 1.0 q
q1650 23.0 1.0 q
q1651 23.0 1.0 q
q1652 23.0 1.0 q
q1653 24.0 1.0 q
q1654 27.0 1.0 q
q1655 27.0 1.0 q
q1656 32.0 1.0 q
q1657 36.0 1.0 q
q1658 33.0 1.0 q
q1659 27.0 1.0 q
q1661 21.0 1.0 q
q1662 23.0 1.0 q
q1663 28.0 1.0 q
q1664 51.0 1.0 q
q1665 58.0 1.0 q
q1666 73.0 1.0 q
q1668 45.0 1.0 q
q1669 27.0 1.0 q
q1670 40.0 1.0 q
q1671 43.0 1.0 q
q1672 58.0 1.0 q
q1673 65.0 1.0 q