pcf
* control data
restart estimation
42    9787      18       0       2
2    2 single point   1   0   0
10.0  -3  0.3  0.03  10  lamforgive derforgive
10.0  10.0  0.001
0.1  noaui
   50  0.005  4  4  0.005  4
0 0 0  PARSAVEITN
* singular value decomposition
1
42 5E-07
0
* parameter groups
ddsd         relative 0.025  0.0  switch  2.0 parabolic 1.0e-4 0.5 smaller
ddsw         relative 0.025  0.0  switch  2.0 parabolic 1.0e-4 0.5 smaller
ddgd         relative 0.025  0.0  switch  2.0 parabolic 1.0e-4 0.5 smaller
ddgw         relative 0.025  0.0  switch  2.0 parabolic 1.0e-4 0.5 smaller
rcsd         relative 0.025  0.0  switch  2.0 parabolic 1.0e-4 0.5 smaller
rcsw         relative 0.025  0.0  switch  2.0 parabolic 1.0e-4 0.5 smaller
rcrd         relative 0.025  0.0  switch  2.0 parabolic 1.0e-4 0.5 smaller
rcrw         relative 0.025  0.0  switch  2.0 parabolic 1.0e-4 0.5 smaller
rcgd         relative 0.025  0.0  switch  2.0 parabolic 1.0e-4 0.5 smaller
rcgw         relative 0.025  0.0  switch  2.0 parabolic 1.0e-4 0.5 smaller
tl           relative 0.025  0.0  switch  2.0 parabolic 1.0e-4 0.5 smaller
xw           relative 0.025  0.0  switch  2.0 parabolic 1.0e-4 0.5 smaller
yw           relative 0.03  0.0  switch  2.0 parabolic 1.0e-4 0.5 smaller
x           relative 0.025  0.0  switch  2.0 parabolic 1.0e-4 0.5 smaller
y            relative 0.025  0.0  switch  2.0 parabolic 1.0e-4 0.5 smaller
tlr			 relative 0.5  0.0  switch  2.0 parabolic 1.0e-4 0.5 smaller
tls			 relative 0.5  0.0  switch  2.0 parabolic 1.0e-4 0.5 smaller
beta			 relative 0.025  0.0  switch  2.0 parabolic 1.0e-4 0.5 smaller
* parameter data
ddsd	log	factor   0.1241900      1.00e-01	2.1	ddsd	1	0	1
ddsw	log	factor   0.2389100      1.00e-01	2.1	ddsw	1	0	1
ddgd	log	factor   0.3946316      1.00e-08	2.1	ddgd	1	0	1
ddgw	log	factor   2.5486153E-02  1.00e-08	2.1	ddgw	1	0	1
rcs1d	log	factor   0.9000728      1.00e-08	2	rcsd	1	0	1
rcs1w	log	factor   0.9101224      1.00e-08	2	rcsw	1	0	1
rcs2d	log	factor   0.1318243      1.00e-08	2	rcsd	1	0	1
rcs2w	log	factor    2.000000      1.00e-08	2	rcsw	1	0	1
rcs3d	log	factor   1.1863461E-02  1.00e-08	1	rcsd	1	0	1
rcs3w	log	factor    1.000000      1.00e-08	1	rcsw	1	0	1
rcs4d	log	factor   1.7818975E-03  1.00e-08	1	rcsd	1	0	1
rcs4w	log	factor   2.4395866E-03  1.00e-08	1	rcsw	1	0	1
rcs5d	log	factor   0.4724328      1.00e-08	1	rcsd	1	0	1
rcs5w	log	factor   0.3249811      1.00e-08	1	rcsw	1	0	1
rcs6d	log	factor   0.2102950      1.00e-08	1	rcsd	1	0	1
rcs6w	log	factor   0.5819604      1.00e-08	1	rcsw	1	0	1
rcs7d	log	factor   1.3524832E-02  1.00e-08	1	rcsd	1	0	1
rcs7w	log	factor   2.9046595E-04  1.00e-08	1	rcsw	1	0	1
rcr1d	log	factor   1.8052306E-02  1.00e-08	1	rcrd	1	0	1
rcr1w	log	factor   0.9823642      1.00e-08	1	rcrw	1	0	1
rcr2d	log	factor   1.6302036E-03  1.00e-08	1	rcrd	1	0	1
rcr2w	log	factor    1.000000      1.00e-08	1	rcrw	1	0	1
rcr3d	log	factor   0.1980578      1.00e-08	1	rcrd	1	0	1
rcr3w	log	factor   1.1274306E-02  1.00e-08	1	rcrw	1	0	1
rcr4d	log	factor   1.2115820E-03  1.00e-08	1	rcrd	1	0	1
rcr4w	log	factor   5.2023268E-03  1.00e-08	1	rcrw	1	0	1
rcr5d	log	factor   2.5897571E-04  1.00e-08	1	rcrd	1	0	1
rcr5w	log	factor   6.6092622E-04  1.00e-08	1	rcrw	1	0	1
rcr6d	log	factor   1.0827312E-04  1.00e-08	1	rcrd	1	0	1
rcr6w	log	factor   4.5938011E-04  1.00e-08	1	rcrw	1	0	1
rcr7d	log	factor   5.3413140E-05  1.00e-08	1	rcrd	1	0	1
rcr7w	log	factor   1.0498286E-03  1.00e-08	1	rcrw	1	0	1
rcgd	log	factor   4.6154480E-02  1.00e-08	2	rcgd	1	0	1
rcgw	log	factor   0.1210795      1.00e-08	2	rcgw	1	0	1
tl	log	factor    4.934224      1.00e-08	5	tl	1	0	1
xw	log	factor    2.100000      1.00e-08	2.1	xw	1	0	1
yw	log	factor   0.1768574      1.00e-08	1	yw	1	0	1
x	log	factor    1.449438      1.00e-08	2.3	x	1	0	1
y	log	factor   0.1315863      1.00e-08	1	y	1	0	1
tlr	log	factor   6.8200000E-02  1.00e-08	10	tlr	1	0	1
tls	log	factor   0.2220000      1.00e-08	30	tls	1	0	1
beta	log	factor   0.6000000      2.00e-01	6e-01	beta	1	0	1
* observation groups
q
swe
* observation data
 q1                    6.000000       0.707107      q
 q2                    6.000000       0.707107      q
 q3                    6.000000       0.707107      q
 q4                    78.00000       0.707107      q
 q5                    78.00000       0.707107      q
 q6                    78.00000       0.707107      q
 q7                    6.000000       0.707107      q
 q8                    15.00000       0.707107      q
 q9                    17.00000       0.707107      q
 q10                   58.00000       0.707107      q
 q11                   63.00000       0.707107      q
 q12                   51.00000       0.707107      q
 q13                   50.00000       0.707107      q
 q14                   52.00000       0.707107      q
 q15                   51.00000       0.707107      q
 q16                   15.00000       0.707107      q
 q17                   6.000000       0.707107      q
 q18                   6.000000       0.707107      q
 q19                   6.000000       0.707107      q
 q20                   6.000000       0.707107      q
 q21                   6.000000       0.707107      q
 q22                   6.000000       0.707107      q
 q23                   6.000000       0.707107      q
 q24                   6.000000       0.707107      q
 q27                   15.00000       0.707107      q
 q28                   15.00000       0.707107      q
 q29                   15.00000       0.707107      q
 q30                   15.00000       0.707107      q
 q33                   40.00000       0.707107      q
 q34                   17.00000       0.707107      q
 q35                   15.00000       0.707107      q
 q36                   15.00000       0.707107      q
 q37                   15.00000       0.707107      q
 q38                   23.00000       0.707107      q
 q39                   31.00000       0.707107      q
 q40                   16.00000       0.707107      q
 q44                   15.00000       0.707107      q
 q45                   15.00000       0.707107      q
 q46                   15.00000       0.707107      q
 q47                   15.00000       0.707107      q
 q48                   15.00000       0.707107      q
 q49                   15.00000       0.707107      q
 q50                   15.00000       0.707107      q
 q51                   15.00000       0.707107      q
 q52                   15.00000       0.707107      q
 q53                   15.00000       0.707107      q
 q54                   15.00000       0.707107      q
 q55                   14.00000       0.707107      q
 q56                   12.00000       0.707107      q
 q57                   14.00000       0.707107      q
 q58                   14.00000       0.707107      q
 q59                   15.00000       0.707107      q
 q60                   15.00000       0.707107      q
 q61                   15.00000       0.707107      q
 q62                   15.00000       0.707107      q
 q63                   16.00000       0.707107      q
 q64                   16.00000       0.707107      q
 q65                   15.00000       0.707107      q
 q66                   13.00000       0.707107      q
 q67                   13.00000       0.707107      q
 q68                   14.00000       0.707107      q
 q69                   13.00000       0.707107      q
 q70                   19.00000       0.707107      q
 q71                   20.00000       0.707107      q
 q72                   17.00000       0.707107      q
 q73                   16.00000       0.707107      q
 q74                   16.00000       0.707107      q
 q75                   16.00000       0.707107      q
 q76                   12.00000       0.707107      q
 q77                   12.00000       0.707107      q
 q78                   15.00000       0.707107      q
 q79                   16.00000       0.707107      q
 q80                   18.00000       0.707107      q
 q81                   18.00000       0.707107      q
 q82                   20.00000       0.707107      q
 q83                   20.00000       0.707107      q
 q84                   15.00000       0.707107      q
 q85                   17.00000       0.707107      q
 q86                   17.00000       0.707107      q
 q87                   17.00000       0.707107      q
 q88                   15.00000       0.707107      q
 q89                   15.00000       0.707107      q
 q90                   15.00000       0.707107      q
 q91                   15.00000       0.707107      q
 q92                   14.00000       0.707107      q
 q93                   10.00000       0.707107      q
 q94                   11.00000       0.707107      q
 q95                   12.00000       0.707107      q
 q96                   13.00000       0.707107      q
 q97                   12.00000       0.707107      q
 q98                   12.00000       0.707107      q
 q99                   9.000000       0.707107      q
 q100                  9.000000       0.707107      q
 q101                  11.00000       0.707107      q
 q102                  14.00000       0.707107      q
 q103                  17.00000       0.707107      q
 q104                  19.00000       0.707107      q
 q105                  69.00000       0.707107      q
 q106                  26.00000       0.707107      q
 q107                  16.00000       0.707107      q
 q108                  69.00000       0.707107      q
 q109                  24.00000       0.707107      q
 q110                  16.00000       0.707107      q
 q111                  36.00000       0.707107      q
 q112                  54.00000       0.707107      q
 q113                  33.00000       0.707107      q
 q114                  14.00000       0.707107      q
 q115                  54.00000       0.707107      q
 q116                  51.00000       0.707107      q
 q117                  32.00000       0.707107      q
 q118                  15.00000       0.707107      q
 q119                  15.00000       0.707107      q
 q120                  15.00000       0.707107      q
 q121                  15.00000       0.707107      q
 q122                  17.00000       0.707107      q
 q123                  31.00000       0.707107      q
 q124                  15.00000       0.707107      q
 q125                  15.00000       0.707107      q
 q126                  15.00000       0.707107      q
 q127                  15.00000       0.707107      q
 q128                  15.00000       0.707107      q
 q129                  6.000000       0.707107      q
 q130                  6.000000       0.707107      q
 q131                  6.000000       0.707107      q
 q132                  50.00000       0.707107      q
 q133                  50.00000       0.707107      q
 q134                  36.00000       0.707107      q
 q135                  47.00000       0.707107      q
 q136                  48.00000       0.707107      q
 q137                  18.00000       0.707107      q
 q138                  15.00000       0.707107      q
 q139                  15.00000       0.707107      q
 q140                  15.00000       0.707107      q
 q141                  15.00000       0.707107      q
 q142                  17.00000       0.707107      q
 q143                  47.00000       0.707107      q
 q144                  50.00000       0.707107      q
 q145                  48.00000       0.707107      q
 q146                  32.00000       0.707107      q
 q147                  18.00000       0.707107      q
 q148                  15.00000       0.707107      q
 q149                  15.00000       0.707107      q
 q150                  6.000000       0.707107      q
 q151                  6.000000       0.707107      q
 q152                  6.000000       0.707107      q
 q153                  111.0000       0.707107      q
 q154                  32.00000       0.707107      q
 q155                  63.00000       0.707107      q
 q156                  25.00000       0.707107      q
 q157                  45.00000       0.707107      q
 q158                  18.00000       0.707107      q
 q159                  15.00000       0.707107      q
 q160                  15.00000       0.707107      q
 q161                  15.00000       0.707107      q
 q162                  15.00000       0.707107      q
 q163                  15.00000       0.707107      q
 q164                  15.00000       0.707107      q
 q165                  17.00000       0.707107      q
 q166                  48.00000       0.707107      q
 q167                  75.00000       0.707107      q
 q168                  78.00000       0.707107      q
 q169                  46.00000       0.707107      q
 q170                  49.00000       0.707107      q
 q171                  53.00000       0.707107      q
 q172                  59.00000       0.707107      q
 q173                  61.00000       0.707107      q
 q174                  92.00000       0.707107      q
 q175                  92.00000       0.707107      q
 q176                  93.00000       0.707107      q
 q177                  105.0000       0.707107      q
 q178                  110.0000       0.707107      q
 q179                  80.00000       0.707107      q
 q180                  132.0000       0.707107      q
 q181                  153.0000       0.707107      q
 q183                  299.0000       0.707107      q
 q184                  92.00000       0.707107      q
 q185                  59.00000       0.707107      q
 q186                  88.00000       0.707107      q
 q187                  111.0000       0.707107      q
 q188                  98.00000       0.707107      q
 q189                  65.00000       0.707107      q
 q190                  67.00000       0.707107      q
 q191                  61.00000       0.707107      q
 q192                  46.00000       0.707107      q
 q194                  70.00000       0.707107      q
 q195                  81.00000       0.707107      q
 q196                  89.00000       0.707107      q
 q197                  82.00000       0.707107      q
 q198                  115.0000       0.707107      q
 q199                  170.0000       0.707107      q
 q200                  167.0000       0.707107      q
 q201                  172.0000       0.707107      q
 q202                  188.0000       0.707107      q
 q203                  260.0000       0.707107      q
 q204                  200.0000       0.707107      q
 q205                  202.0000       0.707107      q
 q206                  247.0000       0.707107      q
 q207                  331.0000       0.707107      q
 q208                  366.0000       0.707107      q
 q209                  415.0000       0.707107      q
 q210                  427.0000       0.707107      q
 q211                  427.0000       0.707107      q
 q212                  392.0000       0.707107      q
 q213                  395.0000       0.707107      q
 q214                  513.0000       0.707107      q
 q215                  564.0000       0.707107      q
 q216                  568.0000       0.707107      q
 q217                  555.0000       0.707107      q
 q218                  490.0000       0.707107      q
 q219                  482.0000       0.707107      q
 q220                  496.0000       0.707107      q
 q221                  542.0000       0.707107      q
 q222                  562.0000       0.707107      q
 q223                  572.0000       0.707107      q
 q225                  555.0000       0.707107      q
 q226                  511.0000       0.707107      q
 q227                  469.0000       0.707107      q
 q228                  397.0000       0.707107      q
 q229                  380.0000       0.707107      q
 q230                  396.0000       0.707107      q
 q231                  402.0000       0.707107      q
 q232                  456.0000       0.707107      q
 q233                  501.0000       0.707107      q
 q234                  575.0000       0.707107      q
 q235                  484.0000       0.707107      q
 q236                  442.0000       0.707107      q
 q237                  418.0000       0.707107      q
 q238                  395.0000       0.707107      q
 q239                  322.0000       0.707107      q
 q240                  299.0000       0.707107      q
 q241                  270.0000       0.707107      q
 q243                  280.0000       0.707107      q
 q244                  263.0000       0.707107      q
 q246                  267.0000       0.707107      q
 q247                  313.0000       0.707107      q
 q248                  347.0000       0.707107      q
 q249                  365.0000       0.707107      q
 q250                  441.0000       0.707107      q
 q251                  456.0000       0.707107      q
 q252                  441.0000       0.707107      q
 q253                  414.0000       0.707107      q
 q254                  535.0000       0.707107      q
 q255                  689.0000       0.707107      q
 q256                  600.0000       0.707107      q
 q257                  652.0000       0.707107      q
 q258                  619.0000       0.707107      q
 q259                  584.0000       0.707107      q
 q260                  619.0000       0.707107      q
 q261                  673.0000       0.707107      q
 q262                  654.0000       0.707107      q
 q263                  720.0000       0.707107      q
 q264                  879.0000       0.707107      q
 q265                  846.0000       0.707107      q
 q266                  988.0000       0.707107      q
 q267                  1290.000       0.707107      q
 q268                  1320.000       0.707107      q
 q269                  1400.000       0.707107      q
 q270                  1530.000       0.707107      q
 q271                  1700.000       0.707107      q
 q272                  1810.000       0.707107      q
 q273                  1830.000       0.707107      q
 q275                  1940.000       0.707107      q
 q276                  1890.000       0.707107      q
 q277                  1770.000       0.707107      q
 q278                  1710.000       0.707107      q
 q279                  1830.000       0.707107      q
 q280                  2030.000       0.707107      q
 q281                  2270.000       0.707107      q
 q282                  2430.000       0.707107      q
 q283                  2290.000       0.707107      q
 q284                  2150.000       0.707107      q
 q285                  2060.000       0.707107      q
 q286                  2020.000       0.707107      q
 q287                  2040.000       0.707107      q
 q288                  2160.000       0.707107      q
 q289                  2190.000       0.707107      q
 q290                  2280.000       0.707107      q
 q291                  2400.000       0.707107      q
 q292                  2530.000       0.707107      q
 q293                  2840.000       0.707107      q
 q294                  3380.000       0.707107      q
 q295                  3730.000       0.707107      q
 q297                  3420.000       0.707107      q
 q298                  2880.000       0.707107      q
 q299                  2570.000       0.707107      q
 q300                  2390.000       0.707107      q
 q301                  2870.000       0.707107      q
 q302                  3270.000       0.707107      q
 q303                  3560.000       0.707107      q
 q304                  3190.000       0.707107      q
 q305                  2630.000       0.707107      q
 q306                  2440.000       0.707107      q
 q307                  2290.000       0.707107      q
 q308                  2070.000       0.707107      q
 q309                  1950.000       0.707107      q
 q310                  1900.000       0.707107      q
 q311                  1830.000       0.707107      q
 q312                  1680.000       0.707107      q
 q313                  1580.000       0.707107      q
 q314                  1630.000       0.707107      q
 q315                  1610.000       0.707107      q
 q317                  1560.000       0.707107      q
 q318                  1560.000       0.707107      q
 q319                  1640.000       0.707107      q
 q320                  1830.000       0.707107      q
 q321                  2070.000       0.707107      q
 q322                  2760.000       0.707107      q
 q323                  3360.000       0.707107      q
 q324                  3850.000       0.707107      q
 q325                  4220.000       0.707107      q
 q326                  5050.000       0.707107      q
 q327                  5270.000       0.707107      q
 q328                  5460.000       0.707107      q
 q329                  5470.000       0.707107      q
 q330                  5810.000       0.707107      q
 q331                  6020.000       0.707107      q
 q333                  5850.000       0.707107      q
 q334                  5790.000       0.707107      q
 q335                  5670.000       0.707107      q
 q337                  4400.000       0.707107      q
 q338                  3890.000       0.707107      q
 q339                  3120.000       0.707107      q
 q340                  2780.000       0.707107      q
 q341                  2720.000       0.707107      q
 q342                  2700.000       0.707107      q
 q343                  2440.000       0.707107      q
 q344                  2320.000       0.707107      q
 q345                  2250.000       0.707107      q
 q346                  2130.000       0.707107      q
 q347                  2040.000       0.707107      q
 q348                  1950.000       0.707107      q
 q349                  1820.000       0.707107      q
 q350                  1730.000       0.707107      q
 q351                  1600.000       0.707107      q
 q352                  1560.000       0.707107      q
 q353                  1660.000       0.707107      q
 q354                  1670.000       0.707107      q
 q355                  1640.000       0.707107      q
 q356                  1470.000       0.707107      q
 q357                  1330.000       0.707107      q
 q358                  1220.000       0.707107      q
 q359                  1150.000       0.707107      q
 q360                  1070.000       0.707107      q
 q361                  999.0000       0.707107      q
 q362                  928.0000       0.707107      q
 q363                  876.0000       0.707107      q
 q364                  843.0000       0.707107      q
 q365                  769.0000       0.707107      q
 q368                  700.0000       0.707107      q
 q369                  664.0000       0.707107      q
 q370                  626.0000       0.707107      q
 q371                  593.0000       0.707107      q
 q372                  605.0000       0.707107      q
 q373                  615.0000       0.707107      q
 q374                  565.0000       0.707107      q
 q375                  555.0000       0.707107      q
 q376                  532.0000       0.707107      q
 q377                  496.0000       0.707107      q
 q378                  482.0000       0.707107      q
 q379                  453.0000       0.707107      q
 q380                  436.0000       0.707107      q
 q381                  399.0000       0.707107      q
 q382                  331.0000       0.707107      q
 q383                  294.0000       0.707107      q
 q384                  285.0000       0.707107      q
 q385                  286.0000       0.707107      q
 q386                  292.0000       0.707107      q
 q387                  283.0000       0.707107      q
 q388                  286.0000       0.707107      q
 q389                  256.0000       0.707107      q
 q390                  203.0000       0.707107      q
 q391                  160.0000       0.707107      q
 q392                  139.0000       0.707107      q
 q393                  142.0000       0.707107      q
 q394                  145.0000       0.707107      q
 q395                  137.0000       0.707107      q
 q396                  144.0000       0.707107      q
 q397                  137.0000       0.707107      q
 q399                  110.0000       0.707107      q
 q400                  85.00000       0.707107      q
 q401                  82.00000       0.707107      q
 q402                  59.00000       0.707107      q
 q403                  38.00000       0.707107      q
 q404                  38.00000       0.707107      q
 q405                  38.00000       0.707107      q
 q406                  36.00000       0.707107      q
 q407                  36.00000       0.707107      q
 q408                  34.00000       0.707107      q
 q409                  35.00000       0.707107      q
 q410                  34.00000       0.707107      q
 q411                  33.00000       0.707107      q
 q412                  37.00000       0.707107      q
 q413                  54.00000       0.707107      q
 q414                  66.00000       0.707107      q
 q415                  99.00000       0.707107      q
 q416                  63.00000       0.707107      q
 q417                  35.00000       0.707107      q
 q418                  35.00000       0.707107      q
 q419                  35.00000       0.707107      q
 q420                  35.00000       0.707107      q
 q421                  33.00000       0.707107      q
 q422                  33.00000       0.707107      q
 q423                  32.00000       0.707107      q
 q424                  24.00000       0.707107      q
 q426                  16.00000       0.707107      q
 q427                  13.00000       0.707107      q
 q428                  10.00000       0.707107      q
 q429                  5.000000       0.707107      q
 q430                  7.000000       0.707107      q
 q431                  5.000000       0.707107      q
 q432                  5.000000       0.707107      q
 q433                  5.000000       0.707107      q
 q434                  5.000000       0.707107      q
 q435                  5.000000       0.707107      q
 q436                  6.000000       0.707107      q
 q437                  7.000000       0.707107      q
 q438                  12.00000       0.707107      q
 q439                  5.000000       0.707107      q
 q440                  5.000000       0.707107      q
 q441                  5.000000       0.707107      q
 q442                  5.000000       0.707107      q
 q443                  5.000000       0.707107      q
 q444                  5.000000       0.707107      q
 q445                  8.000000       0.707107      q
 q446                  5.000000       0.707107      q
 q447                  18.00000       0.707107      q
 q448                  15.00000       0.707107      q
 q449                  11.00000       0.707107      q
 q451                  19.00000       0.707107      q
 q452                  14.00000       0.707107      q
 q453                  13.00000       0.707107      q
 q454                  8.000000       0.707107      q
 q455                  10.00000       0.707107      q
 q456                  12.00000       0.707107      q
 q457                  13.00000       0.707107      q
 q458                  9.000000       0.707107      q
 q459                  13.00000       0.707107      q
 q460                  18.00000       0.707107      q
 q461                  18.00000       0.707107      q
 q462                  18.00000       0.707107      q
 q463                  18.00000       0.707107      q
 q464                  14.00000       0.707107      q
 q465                  14.00000       0.707107      q
 q466                  11.00000       0.707107      q
 q467                  8.000000       0.707107      q
 q468                  12.00000       0.707107      q
 q469                  13.00000       0.707107      q
 q470                  20.00000       0.707107      q
 q471                  22.00000       0.707107      q
 q472                  13.00000       0.707107      q
 q473                  10.00000       0.707107      q
 q475                  8.000000       0.707107      q
 q476                  9.000000       0.707107      q
 q477                  13.00000       0.707107      q
 q478                  14.00000       0.707107      q
 q479                  14.00000       0.707107      q
 q480                  12.00000       0.707107      q
 q481                  14.00000       0.707107      q
 q482                  12.00000       0.707107      q
 q483                  12.00000       0.707107      q
 q484                  12.00000       0.707107      q
 q485                  17.00000       0.707107      q
 q486                  11.00000       0.707107      q
 q487                  24.00000       0.707107      q
 q488                  29.00000       0.707107      q
 q489                  19.00000       0.707107      q
 q491                  22.00000       0.707107      q
 q492                  28.00000       0.707107      q
 q493                  15.00000       0.707107      q
 q494                  14.00000       0.707107      q
 q495                  13.00000       0.707107      q
 q496                  15.00000       0.707107      q
 q497                  16.00000       0.707107      q
 q498                  25.00000       0.707107      q
 q499                  16.00000       0.707107      q
 q500                  15.00000       0.707107      q
 q502                  39.00000       0.707107      q
 q503                  25.00000       0.707107      q
 q504                  30.00000       0.707107      q
 q505                  17.00000       0.707107      q
 q506                  17.00000       0.707107      q