pcf
* control data
restart estimation
48    9747      20       0       2
2    2 single point   1   0   0
10.0  -3  0.3  0.03  10  lamforgive derforgive
10.0  10.0  0.001
0.1  noaui
   50  0.005  4  4  0.005  4
0 0 0  PARSAVEITN
* singular value decomposition
1
48 5E-07
0
* parameter groups
ddsd         relative 0.025  0.0  switch  2.0 parabolic 1.0e-4 0.5 smaller
ddsw         relative 0.025  0.0  switch  2.0 parabolic 1.0e-4 0.5 smaller
ddgd         relative 0.025  0.0  switch  2.0 parabolic 1.0e-4 0.5 smaller
ddgw         relative 0.025  0.0  switch  2.0 parabolic 1.0e-4 0.5 smaller
rcsd         relative 0.025  0.0  switch  2.0 parabolic 1.0e-4 0.5 smaller
rcsw         relative 0.025  0.0  switch  2.0 parabolic 1.0e-4 0.5 smaller
rcrd         relative 0.025  0.0  switch  2.0 parabolic 1.0e-4 0.5 smaller
rcrw         relative 0.025  0.0  switch  2.0 parabolic 1.0e-4 0.5 smaller
rcgd         relative 0.025  0.0  switch  2.0 parabolic 1.0e-4 0.5 smaller
rcgw         relative 0.025  0.0  switch  2.0 parabolic 1.0e-4 0.5 smaller
tl           relative 0.025  0.0  switch  2.0 parabolic 1.0e-4 0.5 smaller
xw           relative 0.025  0.0  switch  2.0 parabolic 1.0e-4 0.5 smaller
yw           relative 0.03  0.0  switch  2.0 parabolic 1.0e-4 0.5 smaller
x           relative 0.025  0.0  switch  2.0 parabolic 1.0e-4 0.5 smaller
y            relative 0.025  0.0  switch  2.0 parabolic 1.0e-4 0.5 smaller
tlr			 relative 0.5  0.0  switch  2.0 parabolic 1.0e-4 0.5 smaller
tls			 relative 0.5  0.0  switch  2.0 parabolic 1.0e-4 0.5 smaller
beta			 relative 0.025  0.0  switch  2.0 parabolic 1.0e-4 0.5 smaller
alpha			 relative 0.025  0.0  switch  2.0 parabolic 1.0e-4 0.5 smaller
tcrit			 relative 0.025  0.0  switch  2.0 parabolic 1.0e-4 0.5 smaller
* parameter data
ddsd	log	factor   0.1162400      1.00e-01	2.1	ddsd	1	0	1
ddsw	log	factor   0.2185100      1.00e-01	2.1	ddsw	1	0	1
ddgd	log	factor   0.8355311      1.00e-08	2.1	ddgd	1	0	1
ddgw	log	factor   0.1174614      1.00e-08	2.1	ddgw	1	0	1
rcs1d	log	factor   0.9000728      1.00e-08	2	rcsd	1	0	1
rcs1w	log	factor   0.9101224      1.00e-08	2	rcsw	1	0	1
rcs2d	log	factor   0.1318243      1.00e-08	2	rcsd	1	0	1
rcs2w	log	factor    2.000000      1.00e-08	2	rcsw	1	0	1
rcs3d	log	factor   1.1821067E-02  1.00e-08	1	rcsd	1	0	1
rcs3w	log	factor    1.000000      1.00e-08	1	rcsw	1	0	1
rcs4d	log	factor   1.7799989E-03  1.00e-08	1	rcsd	1	0	1
rcs4w	log	factor   2.4335546E-03  1.00e-08	1	rcsw	1	0	1
rcs5d	log	factor   0.1738430      1.00e-08	1	rcsd	1	0	1
rcs5w	log	factor   0.8520429      1.00e-08	1	rcsw	1	0	1
rcs6d	log	factor   0.5312281      1.00e-08	1	rcsd	1	0	1
rcs6w	log	factor   0.8573712      1.00e-08	1	rcsw	1	0	1
rcs7d	log	factor   7.8524979E-03  1.00e-08	1	rcsd	1	0	1
rcs7w	log	factor   2.6775861E-04  1.00e-08	1	rcsw	1	0	1
rcs8d	log	factor   7.8524979E-03  1.00e-08	1	rcsd	1	0	1
rcs8w	log	factor   2.6775861E-04  1.00e-08	1	rcsw	1	0	1
rcr1d	log	factor   1.8077507E-02  1.00e-08	1	rcrd	1	0	1
rcr1w	log	factor   9.3797131E-02  1.00e-08	1	rcrw	1	0	1
rcr2d	log	factor   1.6340479E-03  1.00e-08	1	rcrd	1	0	1
rcr2w	log	factor   0.2915312      1.00e-08	1	rcrw	1	0	1
rcr3d	log	factor   0.2425416      1.00e-08	1	rcrd	1	0	1
rcr3w	log	factor   1.7653292E-03  1.00e-08	1	rcrw	1	0	1
rcr4d	log	factor   1.2136154E-03  1.00e-08	1	rcrd	1	0	1
rcr4w	log	factor   1.1219839E-03  1.00e-08	1	rcrw	1	0	1
rcr5d	log	factor   2.5777327E-04  1.00e-08	1	rcrd	1	0	1
rcr5w	log	factor   3.2115138E-04  1.00e-08	1	rcrw	1	0	1
rcr6d	log	factor   1.0792060E-04  1.00e-08	1	rcrd	1	0	1
rcr6w	log	factor   2.2716471E-04  1.00e-08	1	rcrw	1	0	1
rcr7d	log	factor   5.3403816E-05  1.00e-08	1	rcrd	1	0	1
rcr7w	log	factor   4.1864275E-04  1.00e-08	1	rcrw	1	0	1
rcr8d	log	factor   5.3403816E-05  1.00e-08	1	rcrd	1	0	1
rcr8w	log	factor   4.1864275E-04  1.00e-08	1	rcrw	1	0	1
rcgd	log	factor   9.7720266E-02  1.00e-08	2	rcgd	1	0	1
rcgw	log	factor   0.5580351      1.00e-08	2	rcgw	1	0	1
tl	log	factor    4.970099      1.00e-08	5	tl	1	0	1
xw	log	factor    2.100000      1.00e-08	2.1	xw	1	0	1
yw	log	factor   0.1768574      1.00e-08	1	yw	1	0	1
x	log	factor    1.489160      1.00e-08	2.3	x	1	0	1
y	log	factor   0.2466562      1.00e-08	1	y	1	0	1
tlr	log	factor   6.8200000E-02  1.00e-08	10	tlr	1	0	1
tls	log	factor   0.2220000      1.00e-08	30	tls	1	0	1
beta	log	factor   0.1000000      1.00e-01	2e-01	beta	1	0	1
alpha	log	factor   0.8900000      6.00e-01	9.9e-01	alpha	1	0	1
tcrit	log	factor   7.4800000E-04  1.00e-05	2	tcrit	1	0	1
* observation groups
q
swe
* observation data
q1 286.0 0 q
q2 313.0 0 q
q3 314.0 0.1 q
q4 274.0 0.1 q
q5 234.0 0.1 q
q6 244.0 0.1 q
q7 244.0 0.1 q
q8 235.0 0.1 q
q9 233.0 0.1 q
q10 233.0 0.1 q
q11 234.0 0.1 q
q12 228.0 0.1 q
q13 231.0 0.1 q
q14 221.0 0.1 q
q15 215.0 0.1 q
q16 230.0 0.1 q
q17 230.0 0.1 q
q18 228.0 0.1 q
q19 239.0 0.1 q
q20 236.0 0.1 q
q21 222.0 0.1 q
q22 222.0 0.1 q
q23 216.0 0.1 q
q24 217.0 0.1 q
q25 193.0 0.1 q
q26 169.0 0.1 q
q27 167.0 0.1 q
q28 168.0 0.1 q
q29 171.0 0.1 q
q30 164.0 0.1 q
q31 146.0 0.1 q
q32 139.0 0.1 q
q33 144.0 0.1 q
q34 143.0 0.1 q
q35 154.0 0.1 q
q36 130.0 0.1 q
q41 126.0 0.1 q
q43 136.0 0.1 q
q44 146.0 0.1 q
q45 138.0 0.1 q
q46 151.0 0.1 q
q47 147.0 0.1 q
q48 143.0 0.1 q
q49 144.0 0.1 q
q50 149.0 0.1 q
q55 131.0 0.1 q
q56 152.0 0.1 q
q57 174.0 0.1 q
q58 181.0 0.1 q
q59 171.0 0.1 q
q61 165.0 0.1 q
q62 133.0 0.1 q
q63 152.0 0.1 q
q65 140.0 0.1 q
q70 133.0 0.1 q
q78 158.0 0.1 q
q79 172.0 0.1 q
q80 161.0 0.1 q
q81 171.0 0.1 q
q82 153.0 0.1 q
q83 145.0 0.1 q
q85 150.0 0.1 q
q86 187.0 0.1 q
q87 207.0 0.1 q
q88 169.0 0.1 q
q90 135.0 0.1 q
q91 167.0 0.1 q
q92 170.0 0.1 q
q93 162.0 0.1 q
q94 144.0 0.1 q
q99 147.0 0.1 q
q101 141.0 0.1 q
q102 158.0 0.1 q
q103 146.0 0.1 q
q104 134.0 0.1 q
q105 150.0 0.1 q
q106 156.0 0.1 q
q107 142.0 0.1 q
q108 159.0 0.1 q
q109 310.0 0.1 q
q110 251.0 0.1 q
q111 213.0 0.1 q
q112 202.0 0.1 q
q113 277.0 0.1 q
q114 239.0 0.1 q
q115 216.0 0.1 q
q116 232.0 0.1 q
q117 280.0 0.1 q
q118 218.0 0.1 q
q119 211.0 0.1 q
q120 196.0 0.1 q
q121 190.0 0.1 q
q122 172.0 0.1 q
q123 169.0 0.1 q
q124 199.0 0.1 q
q125 195.0 0.1 q
q126 192.0 0.1 q
q127 179.0 0.1 q
q128 157.0 0.1 q
q129 165.0 0.1 q
q130 162.0 0.1 q
q131 201.0 0.1 q
q132 218.0 0.1 q
q133 240.0 0.1 q
q134 235.0 0.1 q
q135 246.0 0.1 q
q136 261.0 0.1 q
q137 250.0 0.1 q
q138 309.0 0.1 q
q139 289.0 0.1 q
q140 333.0 0.1 q
q141 315.0 0.1 q
q142 300.0 0.1 q
q143 295.0 0.1 q
q144 316.0 0.1 q
q145 356.0 0.1 q
q146 358.0 0.1 q
q147 339.0 0.1 q
q148 354.0 0.1 q
q149 329.0 0.1 q
q150 313.0 0.1 q
q151 312.0 0.1 q
q152 360.0 0.1 q
q153 342.0 0.1 q
q154 351.0 0.1 q
q155 310.0 0.1 q
q156 294.0 0.1 q
q157 282.0 0.1 q
q158 296.0 0.1 q
q159 347.0 0.1 q
q160 324.0 0.1 q
q161 323.0 0.1 q
q162 287.0 0.1 q
q163 284.0 0.1 q
q164 291.0 0.1 q
q165 301.0 0.1 q
q166 868.0 0.1 q
q167 1260.0 0.1 q
q168 822.0 0.1 q
q169 806.0 0.1 q
q170 757.0 0.1 q
q171 751.0 0.1 q
q172 765.0 0.1 q
q173 735.0 0.1 q
q174 718.0 0.1 q
q216 3340.0 0.1 q
q218 3120.0 0.1 q
q219 2860.0 0.1 q
q220 2810.0 0.1 q
q226 3160.0 0.1 q
q227 2880.0 0.1 q
q228 2710.0 0.1 q
q229 2600.0 0.1 q
q230 2460.0 0.1 q
q231 2430.0 0.1 q
q232 2530.0 0.1 q
q233 2690.0 0.1 q
q235 3180.0 0.1 q
q236 2900.0 0.1 q
q237 2720.0 0.1 q
q238 2690.0 0.1 q
q239 2530.0 0.1 q
q240 2420.0 0.1 q
q241 2360.0 0.1 q
q242 2310.0 0.1 q
q243 2290.0 0.1 q
q244 2310.0 0.1 q
q245 2430.0 0.1 q
q246 2440.0 0.1 q
q247 2470.0 0.1 q
q248 2500.0 0.1 q
q249 2530.0 0.1 q
q250 2580.0 0.1 q
q251 2670.0 0.1 q
q252 2710.0 0.1 q
q253 2640.0 0.1 q
q397 355.0 0.1 q
q398 257.0 0.1 q
q399 144.0 0.1 q
q400 131.0 0.1 q
q401 134.0 0.1 q
q402 146.0 0.1 q
q403 155.0 0.1 q
q404 147.0 0.1 q
q405 144.0 0.1 q
q406 130.0 0.1 q
q407 136.0 0.1 q
q408 135.0 0.1 q
q409 135.0 0.1 q
q410 147.0 0.1 q
q411 136.0 0.1 q
q412 146.0 0.1 q
q413 136.0 0.1 q
q414 141.0 0.1 q
q415 145.0 0.1 q
q416 195.0 0.1 q
q417 194.0 0.1 q
q418 188.0 0.1 q
q419 245.0 0.1 q
q420 267.0 0.1 q
q421 322.0 0.1 q
q422 210.0 0.1 q
q423 196.0 0.1 q
q424 208.0 0.1 q
q425 145.0 0.1 q
q426 145.0 0.1 q
q427 161.0 0.1 q
q428 133.0 0.1 q
q429 125.0 0.1 q
q430 124.0 0.1 q
q431 124.0 0.1 q
q432 122.0 0.1 q
q433 119.0 0.1 q
q434 115.0 0.1 q
q435 112.0 0.1 q
q436 113.0 0.1 q
q437 115.0 0.1 q
q438 114.0 0.1 q
q439 116.0 0.1 q
q440 120.0 0.1 q
q441 122.0 0.1 q
q442 120.0 0.1 q
q443 122.0 0.1 q
q444 125.0 0.1 q
q445 126.0 0.1 q
q446 187.0 0.1 q
q447 383.0 0.1 q
q448 603.0 0.1 q
q449 515.0 0.1 q
q450 470.0 0.1 q
q451 479.0 0.1 q
q452 458.0 0.1 q
q453 411.0 0.1 q
q454 450.0 0.1 q
q455 419.0 0.1 q
q456 527.0 0.1 q
q457 433.0 0.1 q
q458 411.0 0.1 q
q459 424.0 0.1 q
q460 430.0 0.1 q
q461 458.0 0.1 q
q462 444.0 0.1 q
q463 522.0 0.1 q
q464 534.0 0.1 q
q465 480.0 0.1 q
q466 413.0 0.1 q
q467 426.0 0.1 q
q468 426.0 0.1 q
q469 479.0 0.1 q
q470 510.0 0.1 q
q471 495.0 0.1 q
q472 506.0 0.1 q
q473 375.0 0.1 q
q474 388.0 0.1 q
q475 440.0 0.1 q
q476 418.0 0.1 q
q477 399.0 0.1 q
q478 420.0 0.1 q
q479 446.0 0.1 q
q480 462.0 0.1 q
q481 427.0 0.1 q
q482 339.0 0.1 q
q483 214.0 0.1 q
q484 281.0 0.1 q
q485 261.0 0.1 q
q486 287.0 0.1 q
q487 248.0 0.1 q
q488 220.0 0.1 q
q489 198.0 0.1 q
q490 206.0 0.1 q
q491 241.0 0.1 q
q492 326.0 0.1 q
q493 397.0 0.1 q
q494 436.0 0.1 q
q495 474.0 0.1 q
q496 399.0 0.1 q
q497 339.0 0.1 q
q498 301.0 0.1 q
q499 231.0 0.1 q
q500 282.0 0.1 q
q501 727.0 0.1 q
q502 661.0 0.1 q
q503 572.0 0.1 q
q504 585.0 0.1 q
q505 546.0 0.1 q
q506 564.0 0.1 q
q507 608.0 0.1 q
q508 583.0 0.1 q
q509 542.0 0.1 q
q510 644.0 0.1 q
q511 584.0 0.1 q
q512 564.0 0.1 q
q513 545.0 0.1 q
q514 540.0 0.1 q
q515 554.0 0.1 q
q516 660.0 0.1 q
q517 763.0 0.1 q
q518 724.0 0.1 q
q519 692.0 0.1 q
q520 712.0 0.1 q
q521 713.0 0.1 q
q522 662.0 0.1 q
q523 633.0 0.1 q
q524 564.0 0.1 q
q525 478.0 0.1 q
q526 444.0 0.1 q
q527 462.0 0.1 q
q528 472.0 0.1 q
q529 437.0 0.1 q
q530 446.0 0.1 q
q531 456.0 0.1 q
q532 442.0 0.1 q
q533 398.0 0.1 q
q534 381.0 0.1 q
q535 334.0 0.1 q
q536 311.0 0.1 q
q537 296.0 0.1 q
q538 268.0 0.1 q
q539 244.0 0.1 q
q540 265.0 0.1 q
q541 195.0 0.1 q
q542 315.0 0.1 q
q543 351.0 0.1 q
q544 338.0 0.1 q
q545 430.0 0.1 q
q546 434.0 0.1 q
q547 366.0 0.1 q
q548 321.0 0.1 q
q549 371.0 0.1 q
q550 288.0 0.1 q
q551 236.0 0.1 q
q552 239.0 0.1 q
q553 183.0 0.1 q
q554 190.0 0.1 q
q555 236.0 0.1 q
q556 319.0 0.1 q
q557 380.0 0.1 q
q558 370.0 0.1 q
q559 404.0 0.1 q
q560 387.0 0.1 q
q561 468.0 0.1 q
q562 539.0 0.1 q
q563 580.0 0.1 q
q564 688.0 0.1 q
q565 758.0 0.1 q
q567 19500.0 0.1 q
q568 6200.0 0.1 q
q569 4250.0 0.1 q
q570 3230.0 0.1 q
q571 2740.0 0.1 q
q572 2320.0 0.1 q
q573 1980.0 0.1 q
q574 1820.0 0.1 q
q575 1710.0 0.1 q
q576 1680.0 0.1 q
q577 2140.0 0.1 q
q578 2160.0 0.1 q
q579 1630.0 0.1 q
q580 2340.0 0.1 q
q581 2830.0 0.1 q
q582 3050.0 0.1 q
q583 3110.0 0.1 q
q584 2780.0 0.1 q
q585 2590.0 0.1 q
q586 2670.0 0.1 q
q587 2830.0 0.1 q
q588 3080.0 0.1 q
q589 3240.0 0.1 q
q590 3230.0 0.1 q
q591 2940.0 0.1 q
q592 2710.0 0.1 q
q593 2370.0 0.1 q
q594 2009.9999999999998 0.1 q
q595 2060.0 0.1 q
q596 2270.0 0.1 q
q597 1950.0 0.1 q
q598 1820.0 0.1 q
q599 2080.0 0.1 q
q600 2540.0 0.1 q
q601 3210.0 0.1 q
q602 3840.0 0.1 q
q603 3050.0 0.1 q
q604 16000.0 0.1 q
q605 4690.0 0.1 q
q606 3910.0 0.1 q
q607 4160.0 0.1 q
q608 4740.0 0.1 q
q609 5400.0 0.1 q
q610 5260.0 0.1 q
q611 4760.0 0.1 q
q612 4100.0 0.1 q
q613 3700.0 0.1 q
q614 3520.0 0.1 q
q615 3220.0 0.1 q
q616 3050.0 0.1 q
q617 3040.0 0.1 q
q618 3050.0 0.1 q
q619 3040.0 0.1 q
q620 3560.0 0.1 q
q621 4030.0000000000005 0.1 q
q622 3780.0 0.1 q
q623 3320.0 0.1 q
q624 3260.0 0.1 q
q625 3550.0 0.1 q
q626 4190.0 0.1 q
q627 3900.0 0.1 q
q628 3570.0 0.1 q
q629 3410.0 0.1 q
q630 3750.0 0.1 q
q631 4040.0 0.1 q
q632 3440.0 0.1 q
q633 3170.0 0.1 q
q634 2900.0 0.1 q
q635 2970.0 0.1 q
q636 2830.0 0.1 q
q637 2530.0 0.1 q
q638 2510.0 0.1 q
q639 3000.0 0.1 q
q640 2680.0 0.1 q
q641 2340.0 0.1 q
q642 2220.0 0.1 q
q643 2640.0 0.1 q
q644 2790.0 0.1 q
q645 3240.0 0.1 q
q646 3870.0 0.1 q
q647 3430.0 0.1 q
q648 3290.0 0.1 q
q649 3800.0 0.1 q
q650 4800.0 0.1 q
q651 5320.0 0.1 q
q652 5590.0 0.1 q
q653 5950.0 0.1 q
q654 5840.0 0.1 q
q655 6400.0 0.1 q
q656 6570.0 0.1 q
q657 6760.0 0.1 q
q658 7250.0 0.1 q
q659 7380.0 0.1 q
q660 7290.0 0.1 q
q661 6470.0 0.1 q
q662 6160.0 0.1 q
q663 6630.0 0.1 q
q664 6840.0 0.1 q
q665 6430.0 0.1 q
q666 6740.0 0.1 q
q667 7070.0 0.1 q
q668 5510.0 0.1 q
q669 4340.0 0.1 q
q670 4370.0 0.1 q
q671 5020.0 0.1 q
q672 5590.0 0.1 q
q673 6120.0 0.1 q
q674 6390.0 0.1 q
q675 6030.0 0.1 q
q676 5350.0 0.1 q
q677 4610.0 0.1 q
q678 4150.0 0.1 q
q679 3520.0 0.1 q
q680 3020.0 0.1 q
q681 2750.0 0.1 q
q682 2870.0 0.1 q
q683 3350.0 0.1 q
q684 3830.0 0.1 q
q685 3900.0 0.1 q
q686 3780.0 0.1 q
q687 3930.0 0.1 q
q688 4490.0 0.1 q
q689 4690.0 0.1 q
q690 4590.0 0.1 q
q691 4440.0 0.1 q
q692 4410.0 0.1 q
q693 4740.0 0.1 q
q694 4350.0 0.1 q
q695 3860.0 0.1 q
q696 3800.0 0.1 q
q697 3890.0 0.1 q
q698 3760.0 0.1 q
q699 3660.0 0.1 q
q700 3670.0 0.1 q
q701 3670.0 0.1 q
q702 3770.0 0.1 q
q703 3680.0 0.1 q
q704 3450.0 0.1 q
q705 3090.0 0.1 q
q706 2680.0 0.1 q
q707 2650.0 0.1 q
q708 2660.0 0.1 q
q709 2660.0 0.1 q
q710 2600.0 0.1 q
q711 2220.0 0.1 q
q712 2100.0 0.1 q
q713 2029.9999999999998 0.1 q
q714 1990.0 0.1 q
q715 1660.0 0.1 q
q716 1410.0 0.1 q
q717 1310.0 0.1 q
q718 1420.0 0.1 q
q719 1410.0 0.1 q
q720 1300.0 0.1 q
q721 980.0 0.1 q
q722 902.0 0.1 q
q723 633.0 0.1 q
q724 594.0 0.1 q
q725 540.0 0.1 q
q726 498.0 0.1 q
q727 542.0 0.1 q
q728 511.0 0.1 q
q729 553.0 0.1 q
q730 431.0 0.1 q
q731 292.0 0.1 q
q732 420.0 0.1 q
q733 931.0 0.1 q
q734 1040.0 0.1 q
q735 815.0 0.1 q
q736 623.0 0.1 q
q737 359.0 0.1 q
q738 153.0 0.1 q
q739 97.0 0.1 q
q740 80.0 0.1 q
q741 91.0 0.1 q
q742 239.0 0.1 q
q743 111.0 0.1 q
q744 101.0 0.1 q
q745 97.0 0.1 q
q746 92.0 0.1 q
q747 97.0 0.1 q
q748 90.0 0.1 q
q749 92.0 0.1 q
q750 82.0 0.1 q
q751 82.0 0.1 q
q752 80.0 0.1 q
q753 77.0 0.1 q
q754 77.0 0.1 q
q755 77.0 0.1 q
q756 80.0 0.1 q
q757 78.0 0.1 q
q758 79.0 0.1 q
q759 78.0 0.1 q
q760 79.0 0.1 q
q761 78.0 0.1 q
q762 78.0 0.1 q
q763 76.0 0.1 q
q764 76.0 0.1 q
q765 74.0 0.1 q
q766 71.0 0.1 q
q767 74.0 0.1 q
q768 76.0 0.1 q
q769 73.0 0.1 q
q770 72.0 0.1 q
q771 70.0 0.1 q
q772 69.0 0.1 q
q773 70.0 0.1 q
q774 72.0 0.1 q
q775 71.0 0.1 q
q776 73.0 0.1 q
q777 71.0 0.1 q
q778 69.0 0.1 q
q779 70.0 0.1 q
q780 70.0 0.1 q
q781 71.0 0.1 q
q782 71.0 0.1 q
q783 69.0 0.1 q
q784 70.0 0.1 q
q785 70.0 0.1 q
q786 67.0 0.1 q
q787 69.0 0.1 q
q788 69.0 0.1 q
q789 71.0 0.1 q
q790 66.0 0.1 q
q791 65.0 0.1 q
q792 70.0 0.1 q
q793 69.0 0.1 q
q794 58.0 0.1 q
q795 56.0 0.1 q
q796 54.0 0.1 q
q797 59.0 0.1 q
q798 58.0 0.1 q
q799 61.0 0.1 q
q800 63.0 0.1 q
q801 64.0 0.1 q
q802 64.0 0.1 q
q803 63.0 0.1 q
q804 65.0 0.1 q
q805 65.0 0.1 q
q806 67.0 0.1 q
q807 65.0 0.1 q
q808 67.0 0.1 q
q809 66.0 0.1 q
q810 68.0 0.1 q
q811 69.0 0.1 q
q812 67.0 0.1 q
q813 67.0 0.1 q
q814 67.0 0.1 q
q815 68.0 0.1 q
q816 68.0 0.1 q
q817 75.0 0.1 q
q818 77.0 0.1 q
q819 75.0 0.1 q
q820 75.0 0.1 q
q821 75.0 0.1 q
q822 76.0 0.1 q
q823 77.0 0.1 q
q824 79.0 0.1 q
q825 80.0 0.1 q
q826 80.0 0.1 q
q827 76.0 0.1 q
q828 75.0 0.1 q
q829 76.0 0.1 q
q830 76.0 0.1 q
q831 84.0 0.1 q
q832 121.0 0.1 q
q833 146.0 0.1 q
q834 135.0 0.1 q
q835 131.0 0.1 q
q836 131.0 0.1 q
q837 127.0 0.1 q
q838 129.0 0.1 q
q839 129.0 0.1 q
q840 123.0 0.1 q
q841 119.0 0.1 q
q842 114.0 0.1 q
q843 114.0 0.1 q
q844 110.0 0.1 q
q845 103.0 0.1 q
q846 101.0 0.1 q
q847 104.0 0.1 q
q848 100.0 0.1 q
q849 93.0 0.1 q
q850 93.0 0.1 q
q851 91.0 0.1 q
q852 85.0 0.1 q
q853 89.0 0.1 q
q854 89.0 0.1 q
q855 90.0 0.1 q
q856 85.0 0.1 q
q857 77.0 0.1 q
q858 81.0 0.1 q
q859 79.0 0.1 q
q860 78.0 0.1 q
q861 77.0 0.1 q
q862 77.0 0.1 q
q863 79.0 0.1 q
q864 82.0 0.1 q
q865 3220.0 0.1 q
q866 5190.0 0.1 q
q867 2630.0 0.1 q
q868 1730.0 0.1 q
q869 1060.0 0.1 q
q870 859.0 0.1 q
q871 653.0 0.1 q
q872 531.0 0.1 q
q873 463.0 0.1 q
q874 352.0 0.1 q
q875 525.0 0.1 q
q876 5750.0 0.1 q
q878 32299.999999999996 0.1 q
q879 14500.0 0.1 q
q880 11900.0 0.1 q
q881 9990.0 0.1 q
q882 8550.0 0.1 q
q883 7820.0 0.1 q
q884 7030.0 0.1 q
q885 6420.0 0.1 q
q887 28500.0 0.1 q
q888 8180.0 0.1 q
q889 5690.0 0.1 q
q890 4730.0 0.1 q
q891 4290.0 0.1 q
q892 4140.0 0.1 q
q893 4040.0 0.1 q
q894 3890.0 0.1 q
q895 3700.0 0.1 q
q896 3480.0 0.1 q
q897 3330.0 0.1 q
q898 3260.0 0.1 q
q899 3160.0 0.1 q
q900 3070.0 0.1 q
q901 3150.0 0.1 q
q902 3390.0 0.1 q
q903 3650.0 0.1 q
q904 3760.0 0.1 q
q905 3830.0 0.1 q
q906 4019.9999999999995 0.1 q
q907 4430.0 0.1 q
q908 5820.0 0.1 q
q909 5510.0 0.1 q
q910 4580.0 0.1 q
q911 3830.0 0.1 q
q912 3350.0 0.1 q
q913 3020.0 0.1 q
q914 2860.0 0.1 q
q915 2770.0 0.1 q
q916 2460.0 0.1 q
q917 2410.0 0.1 q
q918 2320.0 0.1 q
q919 2230.0 0.1 q
q920 2140.0 0.1 q
q921 1980.0 0.1 q
q922 1990.0 0.1 q
q923 1920.0 0.1 q
q924 2040.0 0.1 q
q925 2040.0 0.1 q
q926 2130.0 0.1 q
q927 2170.0 0.1 q
q928 2180.0 0.1 q
q929 2230.0 0.1 q
q930 2190.0 0.1 q
q931 2160.0 0.1 q
q932 2490.0 0.1 q
q933 10000.0 0.1 q
q934 3980.0 0.1 q
q935 38500.0 0.1 q
q936 15900.0 0.1 q
q937 10400.0 0.1 q
q938 8960.0 0.1 q
q939 8370.0 0.1 q
q940 9490.0 0.1 q
q941 10400.0 0.1 q
q942 9650.0 0.1 q
q943 8680.0 0.1 q
q944 7950.0 0.1 q
q945 7640.0 0.1 q
q946 7350.0 0.1 q
q947 6680.0 0.1 q
q948 6240.0 0.1 q
q949 6010.0 0.1 q
q950 6190.0 0.1 q
q951 6490.0 0.1 q
q952 6750.0 0.1 q
q953 8070.0 0.1 q
q954 10500.0 0.1 q
q955 11900.0 0.1 q
q956 12500.0 0.1 q
q957 12800.0 0.1 q
q958 12100.0 0.1 q
q959 11400.0 0.1 q
q960 10900.0 0.1 q
q961 12200.0 0.1 q
q962 11100.0 0.1 q
q963 9580.0 0.1 q
q964 8510.0 0.1 q
q965 8170.0 0.1 q
q966 7500.0 0.1 q
q967 9100.0 0.1 q
q968 9960.0 0.1 q
q969 11100.0 0.1 q
q970 17200.0 0.1 q
q971 17600.0 0.1 q
q972 13900.0 0.1 q
q973 13100.0 0.1 q
q974 11800.0 0.1 q
q975 11000.0 0.1 q
q976 11300.0 0.1 q
q977 11600.0 0.1 q
q978 11800.0 0.1 q
q979 11300.0 0.1 q
q980 10400.0 0.1 q
q981 9410.0 0.1 q
q982 8590.0 0.1 q
q983 7430.0 0.1 q
q984 7300.0 0.1 q
q985 6700.0 0.1 q
q986 6250.0 0.1 q
q987 6550.0 0.1 q
q988 7020.0 0.1 q
q989 6450.0 0.1 q
q990 5970.0 0.1 q
q991 5430.0 0.1 q
q992 5220.0 0.1 q
q993 4940.0 0.1 q
q994 4750.0 0.1 q
q995 4650.0 0.1 q
q996 5050.0 0.1 q
q997 5000.0 0.1 q
q998 6430.0 0.1 q
q999 9340.0 0.1 q
q1000 11200.0 0.1 q
q1001 12100.0 0.1 q
q1002 12600.0 0.1 q
q1003 12200.0 0.1 q
q1004 11200.0 0.1 q
q1005 11500.0 0.1 q
q1006 12700.0 0.1 q
q1007 11000.0 0.1 q
q1008 9940.0 0.1 q
q1009 9370.0 0.1 q
q1010 10300.0 0.1 q
q1011 9340.0 0.1 q
q1012 8700.0 0.1 q
q1013 8650.0 0.1 q
q1014 9880.0 0.1 q
q1015 10700.0 0.1 q
q1016 11000.0 0.1 q
q1017 14100.0 0.1 q
q1018 17600.0 0.1 q
q1019 19600.0 0.1 q
q1020 21000.0 0.1 q
q1021 22600.0 0.1 q
q1022 23000.0 0.1 q
q1023 20400.0 0.1 q
q1024 15200.0 0.1 q
q1025 12400.0 0.1 q
q1026 10200.0 0.1 q
q1027 9400.0 0.1 q
q1028 8300.0 0.1 q
q1029 8750.0 0.1 q
q1030 7940.0 0.1 q
q1031 8280.0 0.1 q
q1032 10000.0 0.1 q
q1033 10200.0 0.1 q
q1034 9030.0 0.1 q
q1035 10900.0 0.1 q
q1036 13100.0 0.1 q
q1037 12700.0 0.1 q
q1038 9610.0 0.1 q
q1039 9150.0 0.1 q
q1040 9580.0 0.1 q
q1041 10500.0 0.1 q
q1042 10100.0 0.1 q
q1043 9320.0 0.1 q
q1044 8580.0 0.1 q
q1045 7410.0 0.1 q
q1046 7370.0 0.1 q
q1047 8430.0 0.1 q
q1048 10300.0 0.1 q
q1049 12700.0 0.1 q
q1050 14600.0 0.1 q
q1051 18000.0 0.1 q
q1052 16800.0 0.1 q
q1053 18700.0 0.1 q
q1054 18000.0 0.1 q
q1055 16400.0 0.1 q
q1056 15600.0 0.1 q
q1057 17200.0 0.1 q
q1058 19700.0 0.1 q
q1059 22000.0 0.1 q
q1060 22000.0 0.1 q
q1061 20800.0 0.1 q
q1062 20500.0 0.1 q
q1063 20200.0 0.1 q
q1064 19900.0 0.1 q
q1065 18200.0 0.1 q
q1066 15100.0 0.1 q
q1067 13600.0 0.1 q
q1068 14200.0 0.1 q
q1069 13600.0 0.1 q
q1070 12100.0 0.1 q
q1071 11500.0 0.1 q
q1072 10800.0 0.1 q
q1073 11500.0 0.1 q
q1074 10500.0 0.1 q
q1075 9800.0 0.1 q
q1076 9890.0 0.1 q
q1077 10700.0 0.1 q
q1078 12600.0 0.1 q
q1079 13400.0 0.1 q
q1080 13100.0 0.1 q
q1081 12100.0 0.1 q
q1082 11400.0 0.1 q
q1083 10800.0 0.1 q
q1084 9580.0 0.1 q
q1085 8330.0 0.1 q
q1086 7190.0 0.1 q
q1087 6140.0 0.1 q
q1088 5510.0 0.1 q
q1089 4730.0 0.1 q
q1090 4300.0 0.1 q
q1091 4310.0 0.1 q
q1092 4460.0 0.1 q
q1093 4710.0 0.1 q
q1094 4610.0 0.1 q
q1095 4350.0 0.1 q
q1096 4320.0 0.1 q
q1097 4410.0 0.1 q
q1098 4310.0 0.1 q
q1099 4220.0 0.1 q
q1100 4190.0 0.1 q
q1101 4000.0 0.1 q
q1102 3580.0 0.1 q
q1103 3420.0 0.1 q
q1104 3300.0 0.1 q
q1105 3070.0 0.1 q
q1106 2990.0 0.1 q
q1107 2900.0 0.1 q
q1108 2690.0 0.1 q
q1109 2770.0 0.1 q
q1110 2850.0 0.1 q
q1111 2670.0 0.1 q
q1112 2560.0 0.1 q
q1113 2300.0 0.1 q
q1114 2250.0 0.1 q
q1115 2270.0 0.1 q
q1116 2180.0 0.1 q
q1117 2029.9999999999998 0.1 q
q1118 1980.0 0.1 q
q1119 1920.0 0.1 q
q1120 2130.0 0.1 q
q1121 2029.9999999999998 0.1 q
q1122 1910.0 0.1 q
q1123 1750.0 0.1 q
q1124 1670.0 0.1 q
q1125 1540.0 0.1 q
q1126 1430.0 0.1 q
q1127 1380.0 0.1 q
q1128 1510.0 0.1 q
q1129 1460.0 0.1 q
q1130 1410.0 0.1 q
q1131 1360.0 0.1 q
q1132 1410.0 0.1 q
q1133 1440.0 0.1 q
q1134 1380.0 0.1 q
q1135 1320.0 0.1 q
q1136 1140.0 0.1 q
q1137 1100.0 0.1 q
q1138 931.0 0.1 q
q1139 885.0 0.1 q
q1140 894.0 0.1 q
q1141 928.0 0.1 q
q1142 877.0 0.1 q
q1143 841.0 0.1 q
q1144 834.0 0.1 q
q1145 811.0 0.1 q
q1146 749.0 0.1 q
q1147 735.0 0.1 q
q1148 760.0 0.1 q
q1149 750.0 0.1 q
q1150 742.0 0.1 q
q1151 725.0 0.1 q
q1152 725.0 0.1 q
q1153 708.0 0.1 q
q1154 734.0 0.1 q
q1155 654.0 0.1 q
q1156 625.0 0.1 q
q1157 607.0 0.1 q
q1158 624.0 0.1 q
q1159 618.0 0.1 q
q1160 600.0 0.1 q
q1161 593.0 0.1 q
q1162 628.0 0.1 q
q1163 665.0 0.1 q
q1164 671.0 0.1 q
q1165 683.0 0.1 q
q1166 646.0 0.1 q
q1167 650.0 0.1 q
q1168 630.0 0.1 q
q1169 659.0 0.1 q
q1170 626.0 0.1 q
q1171 680.0 0.1 q
q1172 694.0 0.1 q
q1173 728.0 0.1 q
q1174 718.0 0.1 q
q1175 664.0 0.1 q
q1176 650.0 0.1 q
q1177 621.0 0.1 q
q1178 581.0 0.1 q
q1179 586.0 0.1 q
q1180 634.0 0.1 q
q1181 735.0 0.1 q
q1182 731.0 0.1 q
q1183 713.0 0.1 q
q1184 699.0 0.1 q
q1185 650.0 0.1 q
q1186 662.0 0.1 q
q1187 684.0 0.1 q
q1188 678.0 0.1 q
q1189 662.0 0.1 q
q1190 610.0 0.1 q
q1191 534.0 0.1 q
q1192 574.0 0.1 q
q1193 544.0 0.1 q
q1194 509.0 0.1 q
q1195 500.0 0.1 q
q1196 485.0 0.1 q
q1197 492.0 0.1 q
q1198 445.0 0.1 q
q1199 454.0 0.1 q
q1200 449.0 0.1 q
q1201 418.0 0.1 q
q1202 451.0 0.1 q
q1203 461.0 0.1 q
q1204 545.0 0.1 q
q1205 553.0 0.1 q
q1206 493.0 0.1 q
q1207 457.0 0.1 q
q1208 424.0 0.1 q
q1209 472.0 0.1 q
q1210 495.0 0.1 q
q1211 489.0 0.1 q
q1212 495.0 0.1 q
q1213 475.0 0.1 q
q1214 466.0 0.1 q
q1215 488.0 0.1 q
q1216 531.0 0.1 q
q1217 518.0 0.1 q
q1218 523.0 0.1 q
q1219 522.0 0.1 q
q1220 528.0 0.1 q
q1221 499.0 0.1 q
q1222 509.0 0.1 q
q1223 464.0 0.1 q
q1224 500.0 0.1 q
q1225 463.0 0.1 q
q1226 443.0 0.1 q
q1227 520.0 0.1 q
q1228 543.0 0.1 q
q1229 576.0 0.1 q
q1230 570.0 0.1 q
q1231 553.0 0.1 q
q1232 603.0 0.1 q
q1233 576.0 0.1 q
q1234 548.0 0.1 q
q1235 556.0 0.1 q
q1236 655.0 0.1 q
q1237 3540.0 0.1 q
q1238 3810.0 0.1 q
q1239 2880.0 0.1 q
q1240 2520.0 0.1 q
q1241 2340.0 0.1 q
q1242 2280.0 0.1 q
q1243 2280.0 0.1 q
q1244 2020.0 0.1 q
q1245 2000.0 0.1 q
q1246 1990.0 0.1 q
q1247 1850.0 0.1 q
q1248 1880.0 0.1 q
q1249 1900.0 0.1 q
q1250 1750.0 0.1 q
q1251 1700.0 0.1 q
q1252 1630.0 0.1 q
q1253 1550.0 0.1 q
q1254 1440.0 0.1 q
q1255 1390.0 0.1 q
q1256 1550.0 0.1 q
q1257 1820.0 0.1 q
q1258 1890.0 0.1 q
q1259 1670.0 0.1 q
q1260 1650.0 0.1 q
q1261 1990.0 0.1 q
q1262 2610.0 0.1 q
q1263 2050.0 0.1 q
q1264 2009.9999999999998 0.1 q
q1265 1910.0 0.1 q
q1266 1800.0 0.1 q
q1267 1850.0 0.1 q
q1268 1880.0 0.1 q
q1269 1970.0 0.1 q
q1270 1960.0 0.1 q
q1271 1910.0 0.1 q
q1272 1730.0 0.1 q
q1273 1430.0 0.1 q
q1274 1400.0 0.1 q
q1275 1290.0 0.1 q
q1276 1260.0 0.1 q
q1277 1180.0 0.1 q
q1278 1180.0 0.1 q
q1279 1110.0 0.1 q
q1280 1140.0 0.1 q
q1281 1200.0 0.1 q
q1282 1180.0 0.1 q
q1283 1240.0 0.1 q
q1284 1300.0 0.1 q
q1285 1850.0 0.1 q
q1286 1950.0 0.1 q
q1287 1790.0 0.1 q
q1288 1780.0 0.1 q
q1289 1880.0 0.1 q
q1290 2060.0 0.1 q
q1291 2070.0 0.1 q
q1292 2080.0 0.1 q
q1293 1950.0 0.1 q
q1294 1830.0 0.1 q
q1295 1910.0 0.1 q
q1296 1840.0 0.1 q
q1297 1940.0 0.1 q
q1298 1930.0 0.1 q
q1299 1820.0 0.1 q
q1300 1760.0 0.1 q
q1301 1670.0 0.1 q
q1302 1720.0 0.1 q
q1303 1590.0 0.1 q
q1304 1500.0 0.1 q
q1305 1350.0 0.1 q
q1306 1250.0 0.1 q
q1307 1130.0 0.1 q
q1308 1060.0 0.1 q
q1309 1130.0 0.1 q
q1310 1120.0 0.1 q
q1311 1150.0 0.1 q
q1312 1290.0 0.1 q
q1313 1520.0 0.1 q
q1314 1380.0 0.1 q
q1315 1290.0 0.1 q
q1316 1200.0 0.1 q
q1317 1090.0 0.1 q
q1318 1080.0 0.1 q
q1319 1090.0 0.1 q
q1320 1120.0 0.1 q
q1321 1190.0 0.1 q
q1322 1190.0 0.1 q
q1323 1080.0 0.1 q
q1324 1020.0 0.1 q
q1325 1010.0 0.1 q
q1326 1020.0 0.1 q
q1327 1050.0 0.1 q
q1328 948.0 0.1 q
q1329 916.0 0.1 q
q1330 1060.0 0.1 q
q1331 1070.0 0.1 q
q1332 996.0 0.1 q
q1333 905.0 0.1 q
q1334 727.0 0.1 q
q1335 725.0 0.1 q
q1336 757.0 0.1 q
q1337 819.0 0.1 q
q1338 741.0 0.1 q
q1339 649.0 0.1 q
q1340 592.0 0.1 q
q1341 560.0 0.1 q
q1342 609.0 0.1 q
q1343 532.0 0.1 q
q1344 566.0 0.1 q
q1345 579.0 0.1 q
q1346 518.0 0.1 q
q1347 510.0 0.1 q
q1348 503.0 0.1 q
q1349 378.0 0.1 q
q1350 322.0 0.1 q
q1351 304.0 0.1 q
q1352 279.0 0.1 q
q1353 250.0 0.1 q
q1354 241.0 0.1 q
q1355 242.0 0.1 q
q1356 254.0 0.1 q
q1357 267.0 0.1 q
q1358 267.0 0.1 q
q1359 279.0 0.1 q
q1360 286.0 0.1 q
q1361 295.0 0.1 q
q1362 318.0 0.1 q
q1363 320.0 0.1 q
q1364 466.0 0.1 q
q1365 481.0 0.1 q
q1366 506.0 0.1 q
q1367 590.0 0.1 q
q1368 562.0 0.1 q
q1369 526.0 0.1 q
q1370 622.0 0.1 q
q1371 570.0 0.1 q
q1372 484.0 0.1 q
q1373 584.0 0.1 q
q1374 692.0 0.1 q
q1375 776.0 0.1 q
q1376 782.0 0.1 q
q1377 851.0 0.1 q
q1378 802.0 0.1 q
q1379 749.0 0.1 q
q1380 640.0 0.1 q
q1381 644.0 0.1 q
q1382 803.0 0.1 q
q1383 961.0 0.1 q
q1384 1180.0 0.1 q
q1385 1210.0 0.1 q
q1386 1240.0 0.1 q
q1387 1170.0 0.1 q
q1388 1210.0 0.1 q
q1389 1310.0 0.1 q
q1390 1100.0 0.1 q
q1391 1060.0 0.1 q
q1392 1070.0 0.1 q
q1393 1010.0 0.1 q
q1394 929.0 0.1 q
q1395 873.0 0.1 q
q1396 843.0 0.1 q
q1397 711.0 0.1 q
q1398 823.0 0.1 q
q1399 869.0 0.1 q
q1400 946.0 0.1 q
q1401 966.0 0.1 q
q1402 1060.0 0.1 q
q1403 933.0 0.1 q
q1404 911.0 0.1 q
q1405 685.0 0.1 q
q1406 569.0 0.1 q
q1407 469.0 0.1 q
q1408 348.0 0.1 q
q1409 237.0 0.1 q
q1410 319.0 0.1 q
q1411 333.0 0.1 q
q1412 331.0 0.1 q
q1413 309.0 0.1 q
q1414 315.0 0.1 q
q1415 381.0 0.1 q
q1416 342.0 0.1 q
q1417 284.0 0.1 q
q1418 265.0 0.1 q
q1419 261.0 0.1 q
q1420 230.0 0.1 q
q1421 176.0 0.1 q
q1422 178.0 0.1 q
q1423 155.0 0.1 q
q1424 140.0 0.1 q
q1425 123.0 0.1 q
q1426 166.0 0.1 q
q1427 165.0 0.1 q
q1428 192.0 0.1 q
q1429 142.0 0.1 q
q1430 107.0 0.1 q
q1431 100.0 0.1 q
q1432 100.0 0.1 q
q1433 105.0 0.1 q
q1434 94.0 0.1 q
q1435 89.0 0.1 q
q1436 87.0 0.1 q
q1437 110.0 0.1 q
q1438 75.0 0.1 q
q1439 48.0 0.1 q
q1440 57.0 0.1 q
q1441 67.0 0.1 q
q1442 75.0 0.1 q
q1443 92.0 0.1 q
q1444 105.0 0.1 q
q1445 137.0 0.1 q
q1446 59.0 0.1 q
q1447 53.0 0.1 q
q1448 56.0 0.1 q
q1449 58.0 0.1 q
q1450 50.0 0.1 q
q1451 58.0 0.1 q
q1452 59.0 0.1 q
q1453 64.0 0.1 q
q1454 59.0 0.1 q
q1455 53.0 0.1 q
q1456 46.0 0.1 q
q1457 45.0 0.1 q
q1458 48.0 0.1 q
q1459 45.0 0.1 q
q1460 45.0 0.1 q
q1461 54.0 0.1 q
q1462 52.0 0.1 q
q1463 52.0 0.1 q
q1464 52.0 0.1 q
q1465 57.0 0.1 q
q1466 56.0 0.1 q
q1467 63.0 0.1 q
q1468 57.0 0.1 q
q1469 54.0 0.1 q
q1470 55.0 0.1 q
q1471 55.0 0.1 q
q1472 56.0 0.1 q
q1473 54.0 0.1 q
q1474 58.0 0.1 q
q1475 57.0 0.1 q
q1476 56.0 0.1 q
q1477 50.0 0.1 q
q1478 33.0 0.1 q
q1479 27.0 0.1 q
q1480 24.0 0.1 q
q1481 26.0 0.1 q
q1482 25.0 0.1 q
q1483 25.0 0.1 q
q1484 22.0 0.1 q
q1485 27.0 0.1 q
q1486 24.0 0.1 q
q1487 23.0 0.1 q
q1488 24.0 0.1 q
q1489 23.0 0.1 q
q1490 18.0 0.1 q
q1491 17.0 0.1 q
q1492 20.0 0.1 q
q1493 15.0 0.1 q
q1494 16.0 0.1 q
q1495 20.0 0.1 q
q1496 21.0 0.1 q
q1497 24.0 0.1 q
q1498 23.0 0.1 q
q1499 29.0 0.1 q
q1500 39.0 0.1 q
q1501 38.0 0.1 q
q1502 47.0 0.1 q
q1503 35.0 0.1 q
q1504 40.0 0.1 q
q1505 40.0 0.1 q
q1506 37.0 0.1 q
q1507 41.0 0.1 q
q1508 41.0 0.1 q
q1509 42.0 0.1 q
q1510 30.0 0.1 q
q1511 25.0 0.1 q
q1512 24.0 0.1 q
q1513 23.0 0.1 q
q1514 29.0 0.1 q
q1515 29.0 0.1 q
q1516 35.0 0.1 q
q1517 33.0 0.1 q
q1518 30.0 0.1 q
q1519 39.0 0.1 q
q1520 40.0 0.1 q
q1521 40.0 0.1 q
q1522 40.0 0.1 q
q1523 41.0 0.1 q
q1524 44.0 0.1 q
q1525 44.0 0.1 q
q1526 47.0 0.1 q
q1527 49.0 0.1 q
q1528 48.0 0.1 q
q1529 46.0 0.1 q
q1530 51.0 0.1 q
q1531 52.0 0.1 q
q1532 46.0 0.1 q
q1533 45.0 0.1 q
q1534 45.0 0.1 q
q1535 47.0 0.1 q
q1536 49.0 0.1 q
q1537 47.0 0.1 q
q1538 57.0 0.1 q
q1539 66.0 0.1 q
q1540 64.0 0.1 q
q1541 66.0 0.1 q
q1542 66.0 0.1 q
q1543 62.0 0.1 q
q1544 63.0 0.1 q
q1545 65.0 0.1 q
q1546 68.0 0.1 q
q1547 68.0 0.1 q
q1548 68.0 0.1 q
q1549 71.0 0.1 q
q1550 73.0 0.1 q
q1551 77.0 0.1 q
q1552 2970.0 0.1 q
q1553 755.0 0.1 q
q1554 555.0 0.1 q
q1555 266.0 0.1 q
q1556 164.0 0.1 q
q1557 135.0 0.1 q
q1558 148.0 0.1 q
q1559 144.0 0.1 q
q1560 99.0 0.1 q
q1561 74.0 0.1 q
q1562 64.0 0.1 q
q1563 54.0 0.1 q
q1564 54.0 0.1 q
q1565 96.0 0.1 q
q1566 64.0 0.1 q
q1567 59.0 0.1 q
q1568 55.0 0.1 q
q1569 54.0 0.1 q
q1570 50.0 0.1 q
q1571 48.0 0.1 q
q1572 46.0 0.1 q
q1573 73.0 0.1 q
q1574 1160.0 0.1 q
q1575 575.0 0.1 q
q1576 490.0 0.1 q
q1577 433.0 0.1 q
q1578 477.0 0.1 q
q1579 209.0 0.1 q
q1580 381.0 0.1 q
q1581 292.0 0.1 q
q1582 268.0 0.1 q
q1583 137.0 0.1 q
q1584 251.0 0.1 q
q1585 288.0 0.1 q
q1586 137.0 0.1 q
q1587 268.0 0.1 q
q1588 231.0 0.1 q
q1589 181.0 0.1 q
q1590 126.0 0.1 q
q1591 123.0 0.1 q
q1592 172.0 0.1 q
q1593 117.0 0.1 q
q1594 188.0 0.1 q
q1595 130.0 0.1 q
q1596 122.0 0.1 q
q1597 88.0 0.1 q
q1598 78.0 0.1 q
q1599 108.0 0.1 q
q1600 78.0 0.1 q
q1601 105.0 0.1 q
q1602 122.0 0.1 q
q1603 134.0 0.1 q
q1604 80.0 0.1 q
q1605 68.0 0.1 q
q1606 76.0 0.1 q
q1607 60.0 0.1 q
q1608 65.0 0.1 q
q1609 61.0 0.1 q
q1610 56.0 0.1 q
q1611 53.0 0.1 q
q1612 50.0 0.1 q
q1613 48.0 0.1 q
q1614 57.0 0.1 q
q1615 55.0 0.1 q
q1616 53.0 0.1 q
q1617 58.0 0.1 q
q1618 60.0 0.1 q
q1619 52.0 0.1 q
q1620 54.0 0.1 q
q1621 57.0 0.1 q
q1622 56.0 0.1 q
q1623 62.0 0.1 q
q1624 60.0 0.1 q
q1625 60.0 0.1 q
q1626 67.0 0.1 q
q1627 64.0 0.1 q
q1628 65.0 0.1 q
q1629 61.0 0.1 q
q1630 70.0 0.1 q
q1631 71.0 0.1 q
q1632 77.0 0.1 q
q1633 98.0 0.1 q
q1634 124.0 0.1 q
q1635 123.0 0.1 q
q1636 126.0 0.1 q
q1637 107.0 0.1 q
q1638 91.0 0.1 q
q1639 101.0 0.1 q
q1640 76.0 0.1 q
q1641 90.0 0.1 q
q1642 71.0 0.1 q
q1643 72.0 0.1 q
q1644 71.0 0.1 q
q1645 85.0 0.1 q
q1646 82.0 0.1 q
q1647 76.0 0.1 q
q1648 75.0 0.1 q
q1649 76.0 0.1 q
q1650 86.0 0.1 q
q1651 88.0 0.1 q
q1652 74.0 0.1 q
q1653 69.0 0.1 q
q1654 69.0 0.1 q
q1655 73.0 0.1 q
q1656 81.0 0.1 q
q1657 88.0 0.1 q
q1658 84.0 0.1 q
q1659 82.0 0.1 q
q1660 71.0 0.1 q
q1661 79.0 0.1 q
q1662 174.0 0.1 q