pcf
* control data
restart estimation
44    8324      20       0       2
2    2 single point   1   0   0
10.0  -3  0.3  0.03  10  lamforgive derforgive
10.0  10.0  0.001
0.1  noaui
50  0.005  4  4  0.005  4
1  1  1  PARSAVEITN
* singular value decomposition
1
44 5E-06
1
* parameter groups
ddsd         relative 0.025  0.0  switch  2.0 parabolic 1.0e-4 0.5 smaller
ddsw         relative 0.025  0.0  switch  2.0 parabolic 1.0e-4 0.5 smaller
ddgd         relative 0.025  0.0  switch  2.0 parabolic 1.0e-4 0.5 smaller
ddgw         relative 0.025  0.0  switch  2.0 parabolic 1.0e-4 0.5 smaller
rcsd         relative 0.025  0.0  switch  2.0 parabolic 1.0e-4 0.5 smaller
rcsw         relative 0.025  0.0  switch  2.0 parabolic 1.0e-4 0.5 smaller
rcrd         relative 0.025  0.0  switch  2.0 parabolic 1.0e-4 0.5 smaller
rcrw         relative 0.025  0.0  switch  2.0 parabolic 1.0e-4 0.5 smaller
rcgd         relative 0.025  0.0  switch  2.0 parabolic 1.0e-4 0.5 smaller
rcgw         relative 0.025  0.0  switch  2.0 parabolic 1.0e-4 0.5 smaller
tl           relative 0.025  0.0  switch  2.0 parabolic 1.0e-4 0.5 smaller
xw           relative 0.025  0.0  switch  2.0 parabolic 1.0e-4 0.5 smaller
yw           relative 0.03  0.0  switch  2.0 parabolic 1.0e-4 0.5 smaller
x           relative 0.025  0.0  switch  2.0 parabolic 1.0e-4 0.5 smaller
y            relative 0.025  0.0  switch  2.0 parabolic 1.0e-4 0.5 smaller
tlr			 relative 0.5  0.0  switch  2.0 parabolic 1.0e-4 0.5 smaller
tls			 relative 0.5  0.0  switch  2.0 parabolic 1.0e-4 0.5 smaller
beta			 relative 0.025  0.0  switch  2.0 parabolic 1.0e-4 0.5 smaller
alpha			 relative 0.025  0.0  switch  2.0 parabolic 1.0e-4 0.5 smaller
tcrit			 relative 0.025  0.0  switch  2.0 parabolic 1.0e-4 0.5 smaller
* parameter data
ddsd	log	factor   0.2871300      1.00e-01	2.1	ddsd	1	0	1
ddsw	log	factor   0.2301400      1.00e-01	2.1	ddsw	1	0	1
ddgd	log	factor    1.585609      1.00e-08	2.1	ddgd	1	0	1
ddgw	log	factor   0.1877398      1.00e-08	2.1	ddgw	1	0	1
rcs1d	log	factor    2.000000      1.00e-08	2	rcsd	1	0	1
rcs1w	log	factor    2.000000      1.00e-08	2	rcsw	1	0	1
rcs2d	log	factor    2.000000      1.00e-08	2	rcsd	1	0	1
rcs2w	log	factor    2.000000      1.00e-08	2	rcsw	1	0	1
rcs3d	log	factor   1.1237974E-02  1.00e-08	2	rcsd	1	0	1
rcs3w	log	factor   0.7095428      1.00e-08	2	rcsw	1	0	1
rcs4d	log	factor   1.7027849E-03  1.00e-08	2	rcsd	1	0	1
rcs4w	log	factor   1.9900724E-03  1.00e-08	2	rcsw	1	0	1
rcs5d	log	factor   0.9046437      1.00e-08	2	rcsd	1	0	1
rcs5w	log	factor    1.413997      1.00e-08	2	rcsw	1	0	1
rcs6d	log	factor   2.2004121E-02  1.00e-08	2	rcsd	1	0	1
rcs6w	log	factor    2.000000      1.00e-08	2	rcsw	1	0	1
rcs7d	log	factor   4.9404009E-03  1.00e-08	2	rcsd	1	0	1
rcs7w	log	factor    2.000000      1.00e-08	2	rcsw	1	0	1
rcr1d	log	factor    2.000000      1.00e-08	2	rcrd	1	0	1
rcr1w	log	factor    1.693666      1.00e-08	2	rcrw	1	0	1
rcr2d	log	factor   0.1036747      1.00e-08	2	rcrd	1	0	1
rcr2w	log	factor   1.0352389E-02  1.00e-08	2	rcrw	1	0	1
rcr3d	log	factor   3.9041752E-03  1.00e-08	2	rcrd	1	0	1
rcr3w	log	factor   5.2697620E-03  1.00e-08	2	rcrw	1	0	1
rcr4d	log	factor   1.6609191E-03  1.00e-08	2	rcrd	1	0	1
rcr4w	log	factor   1.3732826E-03  1.00e-08	2	rcrw	1	0	1
rcr5d	log	factor   3.3200859E-03  1.00e-08	2	rcrd	1	0	1
rcr5w	log	factor   5.2041455E-03  1.00e-08	2	rcrw	1	0	1
rcr6d	log	factor   1.2448492E-02  1.00e-08	2	rcrd	1	0	1
rcr6w	log	factor   2.8207164E-02  1.00e-08	2	rcrw	1	0	1
rcr7d	log	factor   1.1699713E-02  1.00e-08	2	rcrd	1	0	1
rcr7w	log	factor   1.2453562E-02  1.00e-08	2	rcrw	1	0	1
rcgd	log	factor   3.9814516E-02  1.00e-08	2	rcgd	1	0	1
rcgw	log	factor   0.8919134      1.00e-08	2	rcgw	1	0	1
tl	log	factor    5.000000      1.00e-08	5	tl	1	0	1
xw	log	factor   0.9523951      1.00e-08	2.1	xw	1	0	1
yw	log	factor   2.5432844E-04  1.00e-08	1	yw	1	0	1
x	log	factor    1.156447      1.00e-08	2.3	x	1	0	1
y	log	factor   2.8469426E-02  1.00e-08	1	y	1	0	1
tlr	log	factor   6.8200000E-02  1.00e-08	10	tlr	1	0	1
tls	log	factor   0.2220000      1.00e-08	30	tls	1	0	1
beta	log	factor   0.05000000      1.00e-02	1e-01	beta	1	0	1
alpha	log	factor   0.8900000      6.00e-01	9.9e-01	alpha	1	0	1
tcrit	log	factor   7.4800000E-04  1.00e-05	2	tcrit	1	0	1
* observation groups
q
swe
* observation data
q1 423.0 0.1 q
q2 414.0 0.1 q
q3 386.0 0.1 q
q4 301.0 0.1 q
q5 230.0 0.1 q
q6 260.0 0.1 q
q7 252.0 0.1 q
q8 252.0 0.1 q
q9 221.0 0.1 q
q10 211.0 0.1 q
q11 217.0 0.1 q
q12 217.0 0.1 q
q13 265.0 0.1 q
q14 283.0 0.1 q
q15 260.0 0.1 q
q16 271.0 0.1 q
q17 279.0 0.1 q
q18 297.0 0.1 q
q19 417.0 0.1 q
q20 458.0 0.1 q
q21 449.0 0.1 q
q22 391.0 0.1 q
q23 263.0 0.1 q
q24 269.0 0.1 q
q25 259.0 0.1 q
q26 258.0 0.1 q
q27 260.0 0.1 q
q28 278.0 0.1 q
q29 290.0 0.1 q
q30 272.0 0.1 q
q31 275.0 0.1 q
q32 389.0 0.1 q
q33 460.0 0.1 q
q34 373.0 0.1 q
q35 262.0 0.1 q
q36 242.0 0.1 q
q37 246.0 0.1 q
q38 265.0 0.1 q
q39 277.0 0.1 q
q40 380.0 0.1 q
q41 430.0 0.1 q
q42 349.0 0.1 q
q43 309.0 0.1 q
q44 312.0 0.1 q
q45 301.0 0.1 q
q46 305.0 0.1 q
q47 296.0 0.1 q
q48 314.0 0.1 q
q49 318.0 0.1 q
q50 367.0 0.1 q
q51 480.0 0.1 q
q52 371.0 0.1 q
q53 221.0 0.1 q
q54 201.0 0.1 q
q55 182.0 0.1 q
q56 159.0 0.1 q
q57 140.0 0.1 q
q58 130.0 0.1 q
q60 124.0 0.1 q
q68 124.0 0.1 q
q69 129.0 0.1 q
q70 128.0 0.1 q
q71 147.0 0.1 q
q72 136.0 0.1 q
q73 133.0 0.1 q
q74 130.0 0.1 q
q75 123.0 0.1 q
q76 121.0 0.1 q
q77 124.0 0.1 q
q78 143.0 0.1 q
q79 138.0 0.1 q
q80 157.0 0.1 q
q81 194.0 0.1 q
q82 183.0 0.1 q
q83 228.0 0.1 q
q84 231.0 0.1 q
q85 227.0 0.1 q
q86 239.0 0.1 q
q87 230.0 0.1 q
q88 218.0 0.1 q
q89 204.0 0.1 q
q90 200.0 0.1 q
q91 195.0 0.1 q
q92 186.0 0.1 q
q93 219.0 0.1 q
q94 230.0 0.1 q
q95 213.0 0.1 q
q96 213.0 0.1 q
q97 207.0 0.1 q
q98 191.0 0.1 q
q99 191.0 0.1 q
q100 197.0 0.1 q
q101 191.0 0.1 q
q102 200.0 0.1 q
q103 204.0 0.1 q
q104 211.0 0.1 q
q105 339.0 0.1 q
q106 411.0 0.1 q
q107 379.0 0.1 q
q108 352.0 0.1 q
q109 340.0 0.1 q
q110 307.0 0.1 q
q111 248.0 0.1 q
q112 248.0 0.1 q
q113 248.0 0.1 q
q114 248.0 0.1 q
q115 248.0 0.1 q
q116 248.0 0.1 q
q117 248.0 0.1 q
q118 248.0 0.1 q
q119 248.0 0.1 q
q120 248.0 0.1 q
q121 248.0 0.1 q
q122 248.0 0.1 q
q123 248.0 0.1 q
q124 248.0 0.1 q
q125 248.0 0.1 q
q126 248.0 0.1 q
q127 248.0 0.1 q
q128 248.0 0.1 q
q129 248.0 0.1 q
q130 248.0 0.1 q
q131 248.0 0.1 q
q132 248.0 0.1 q
q133 248.0 0.1 q
q134 248.0 0.1 q
q135 266.0 0.1 q
q136 319.0 0.1 q
q137 371.0 0.1 q
q138 376.0 0.1 q
q139 379.0 0.1 q
q140 363.0 0.1 q
q141 373.0 0.1 q
q142 380.0 0.1 q
q143 380.0 0.1 q
q144 368.0 0.1 q
q145 361.0 0.1 q
q146 369.0 0.1 q
q147 373.0 0.1 q
q148 363.0 0.1 q
q149 364.0 0.1 q
q150 349.0 0.1 q
q151 365.0 0.1 q
q152 395.0 0.1 q
q153 388.0 0.1 q
q154 390.0 0.1 q
q155 384.0 0.1 q
q156 379.0 0.1 q
q157 369.0 0.1 q
q158 370.0 0.1 q
q159 363.0 0.1 q
q160 352.0 0.1 q
q161 346.0 0.1 q
q162 341.0 0.1 q
q163 356.0 0.1 q
q164 374.0 0.1 q
q165 363.0 0.1 q
q166 428.0 0.1 q
q167 449.0 0.1 q
q168 434.0 0.1 q
q169 474.0 0.1 q
q170 447.0 0.1 q
q171 471.0 0.1 q
q172 479.0 0.1 q
q173 388.0 0.1 q
q174 370.0 0.1 q
q175 479.0 0.1 q
q176 507.0 0.1 q
q177 471.0 0.1 q
q178 537.0 0.1 q
q179 608.0 0.1 q
q180 575.0 0.1 q
q181 712.0 0.1 q
q182 749.0 0.1 q
q183 774.0 0.1 q
q184 749.0 0.1 q
q185 730.0 0.1 q
q186 673.0 0.1 q
q187 730.0 0.1 q
q188 752.0 0.1 q
q189 735.0 0.1 q
q190 809.0 0.1 q
q191 841.0 0.1 q
q192 815.0 0.1 q
q193 750.0 0.1 q
q194 740.0 0.1 q
q195 745.0 0.1 q
q196 746.0 0.1 q
q197 774.0 0.1 q
q198 799.0 0.1 q
q199 879.0 0.1 q
q200 914.0 0.1 q
q201 912.0 0.1 q
q202 938.0 0.1 q
q203 1090.0 0.1 q
q204 947.0 0.1 q
q205 1010.0 0.1 q
q206 952.0 0.1 q
q207 990.0 0.1 q
q208 1090.0 0.1 q
q209 1180.0 0.1 q
q210 1190.0 0.1 q
q211 1180.0 0.1 q
q212 1230.0 0.1 q
q213 1230.0 0.1 q
q214 1260.0 0.1 q
q215 1350.0 0.1 q
q216 1390.0 0.1 q
q217 1320.0 0.1 q
q218 1290.0 0.1 q
q219 1280.0 0.1 q
q220 1300.0 0.1 q
q221 1390.0 0.1 q
q222 1490.0 0.1 q
q223 1550.0 0.1 q
q224 1490.0 0.1 q
q225 1470.0 0.1 q
q226 1450.0 0.1 q
q227 1300.0 0.1 q
q228 1270.0 0.1 q
q229 1200.0 0.1 q
q230 1160.0 0.1 q
q231 1170.0 0.1 q
q232 1330.0 0.1 q
q233 1360.0 0.1 q
q234 1560.0 0.1 q
q235 1470.0 0.1 q
q236 1540.0 0.1 q
q237 1490.0 0.1 q
q238 1420.0 0.1 q
q239 1370.0 0.1 q
q240 1330.0 0.1 q
q241 1300.0 0.1 q
q242 1290.0 0.1 q
q243 1310.0 0.1 q
q244 1270.0 0.1 q
q245 1260.0 0.1 q
q246 1270.0 0.1 q
q247 1310.0 0.1 q
q248 1340.0 0.1 q
q249 1350.0 0.1 q
q250 1410.0 0.1 q
q251 1460.0 0.1 q
q252 1480.0 0.1 q
q253 1440.0 0.1 q
q254 1540.0 0.1 q
q255 1520.0 0.1 q
q256 1500.0 0.1 q
q257 1510.0 0.1 q
q258 1470.0 0.1 q
q259 1450.0 0.1 q
q260 1530.0 0.1 q
q261 1650.0 0.1 q
q262 1620.0 0.1 q
q263 1740.0 0.1 q
q264 1870.0 0.1 q
q265 1810.0 0.1 q
q266 2060.0 0.1 q
q267 2790.0 0.1 q
q268 2970.0 0.1 q
q269 3090.0 0.1 q
q270 3290.0 0.1 q
q271 3630.0 0.1 q
q272 3710.0 0.1 q
q273 3730.0 0.1 q
q274 3730.0 0.1 q
q275 3870.0 0.1 q
q276 3800.0 0.1 q
q277 3410.0 0.1 q
q278 3180.0 0.1 q
q279 3100.0 0.1 q
q280 3370.0 0.1 q
q281 3800.0 0.1 q
q282 4030.0000000000005 0.1 q
q283 3870.0 0.1 q
q284 3680.0 0.1 q
q285 3540.0 0.1 q
q286 3490.0 0.1 q
q287 3520.0 0.1 q
q288 3640.0 0.1 q
q289 3720.0 0.1 q
q290 3850.0 0.1 q
q291 4090.0 0.1 q
q292 4320.0 0.1 q
q293 4150.0 0.1 q
q294 4770.0 0.1 q
q295 5290.0 0.1 q
q296 5200.0 0.1 q
q297 5140.0 0.1 q
q298 5060.0 0.1 q
q299 4770.0 0.1 q
q300 4330.0 0.1 q
q301 4280.0 0.1 q
q302 4570.0 0.1 q
q303 4920.0 0.1 q
q304 5010.0 0.1 q
q305 4590.0 0.1 q
q306 4100.0 0.1 q
q307 3850.0 0.1 q
q308 3700.0 0.1 q
q309 3520.0 0.1 q
q310 3310.0 0.1 q
q311 3280.0 0.1 q
q312 3150.0 0.1 q
q313 3010.0 0.1 q
q314 2840.0 0.1 q
q315 2930.0 0.1 q
q316 2790.0 0.1 q
q317 2760.0 0.1 q
q318 2800.0 0.1 q
q319 2850.0 0.1 q
q320 2950.0 0.1 q
q321 3160.0 0.1 q
q322 3700.0 0.1 q
q323 4470.0 0.1 q
q324 4960.0 0.1 q
q325 5250.0 0.1 q
q326 5710.0 0.1 q
q327 5920.0 0.1 q
q328 5870.0 0.1 q
q329 5960.0 0.1 q
q330 6080.0 0.1 q
q331 6580.0 0.1 q
q332 6930.0 0.1 q
q333 7100.0 0.1 q
q334 6850.0 0.1 q
q335 6660.0 0.1 q
q336 6260.0 0.1 q
q337 5920.0 0.1 q
q338 5690.0 0.1 q
q339 5330.0 0.1 q
q340 5010.0 0.1 q
q341 4850.0 0.1 q
q342 4790.0 0.1 q
q343 4570.0 0.1 q
q344 4430.0 0.1 q
q345 4300.0 0.1 q
q346 4120.0 0.1 q
q347 3940.0 0.1 q
q348 3640.0 0.1 q
q349 3400.0 0.1 q
q350 3160.0 0.1 q
q351 2890.0 0.1 q
q352 2720.0 0.1 q
q353 2590.0 0.1 q
q354 2430.0 0.1 q
q355 2290.0 0.1 q
q356 2160.0 0.1 q
q357 2009.9999999999998 0.1 q
q358 1920.0 0.1 q
q359 1820.0 0.1 q
q360 1830.0 0.1 q
q361 1800.0 0.1 q
q362 1720.0 0.1 q
q363 1690.0 0.1 q
q364 1660.0 0.1 q
q365 1630.0 0.1 q
q366 1600.0 0.1 q
q367 1530.0 0.1 q
q368 1540.0 0.1 q
q369 1490.0 0.1 q
q370 1470.0 0.1 q
q371 1430.0 0.1 q
q372 1400.0 0.1 q
q373 1450.0 0.1 q
q374 1460.0 0.1 q
q375 1440.0 0.1 q
q376 1450.0 0.1 q
q377 1390.0 0.1 q
q378 1410.0 0.1 q
q379 1380.0 0.1 q
q380 1380.0 0.1 q
q381 1370.0 0.1 q
q382 1330.0 0.1 q
q383 1280.0 0.1 q
q384 1210.0 0.1 q
q385 1190.0 0.1 q
q386 1180.0 0.1 q
q387 1230.0 0.1 q
q388 1190.0 0.1 q
q389 1110.0 0.1 q
q390 1000.0 0.1 q
q391 724.0 0.1 q
q392 521.0 0.1 q
q393 488.0 0.1 q
q394 291.0 0.1 q
q395 161.0 0.1 q
q396 96.0 0.1 q
q397 46.0 0.1 q
q398 17.0 0.1 q
q399 7.0 0.1 q
q400 8.0 0.1 q
q401 729.0 0.1 q
q402 632.0 0.1 q
q403 541.0 0.1 q
q404 436.0 0.1 q
q405 288.0 0.1 q
q406 173.0 0.1 q
q407 100.0 0.1 q
q408 17.0 0.1 q
q409 6.0 0.1 q
q410 6.0 0.1 q
q411 4.0 0.1 q
q412 1.0 0.1 q
q413 6.0 0.1 q
q414 6.0 0.1 q
q415 5.0 0.1 q
q416 5.0 0.1 q
q417 5.0 0.1 q
q418 654.0 0.1 q
q419 684.0 0.1 q
q420 653.0 0.1 q
q421 612.0 0.1 q
q422 634.0 0.1 q
q423 668.0 0.1 q
q424 556.0 0.1 q
q425 470.0 0.1 q
q426 652.0 0.1 q
q427 729.0 0.1 q
q428 725.0 0.1 q
q429 716.0 0.1 q
q430 714.0 0.1 q
q431 712.0 0.1 q
q432 590.0 0.1 q
q433 499.0 0.1 q
q434 511.0 0.1 q
q435 539.0 0.1 q
q436 534.0 0.1 q
q437 534.0 0.1 q
q438 526.0 0.1 q
q439 522.0 0.1 q
q440 535.0 0.1 q
q474 402.0 0.1 q
q475 428.0 0.1 q
q476 422.0 0.1 q
q477 448.0 0.1 q
q478 457.0 0.1 q
q479 498.0 0.1 q
q480 520.0 0.1 q
q481 518.0 0.1 q
q482 530.0 0.1 q
q483 552.0 0.1 q
q484 561.0 0.1 q
q485 601.0 0.1 q
q486 613.0 0.1 q
q487 631.0 0.1 q
q488 647.0 0.1 q
q489 655.0 0.1 q
q490 655.0 0.1 q
q491 742.0 0.1 q
q492 920.0 0.1 q
q493 938.0 0.1 q
q494 906.0 0.1 q
q495 899.0 0.1 q
q496 859.0 0.1 q
q497 831.0 0.1 q
q498 955.0 0.1 q
q499 990.0 0.1 q
q500 999.0 0.1 q
q501 1060.0 0.1 q
q502 1090.0 0.1 q
q503 1090.0 0.1 q
q504 1080.0 0.1 q
q505 1190.0 0.1 q
q506 1180.0 0.1 q
q507 980.0 0.1 q
q508 597.0 0.1 q
q509 542.0 0.1 q
q510 543.0 0.1 q
q511 532.0 0.1 q
q512 532.0 0.1 q
q513 528.0 0.1 q
q514 529.0 0.1 q
q515 533.0 0.1 q
q516 538.0 0.1 q
q517 521.0 0.1 q
q518 539.0 0.1 q
q519 588.0 0.1 q
q520 569.0 0.1 q
q521 530.0 0.1 q
q522 561.0 0.1 q
q523 548.0 0.1 q
q524 544.0 0.1 q
q525 551.0 0.1 q
q526 529.0 0.1 q
q527 503.0 0.1 q
q528 400.0 0.1 q
q529 379.0 0.1 q
q530 512.0 0.1 q
q531 522.0 0.1 q
q532 517.0 0.1 q
q533 474.0 0.1 q
q534 475.0 0.1 q
q535 454.0 0.1 q
q536 496.0 0.1 q
q537 518.0 0.1 q
q538 521.0 0.1 q
q539 485.0 0.1 q
q540 502.0 0.1 q
q541 431.0 0.1 q
q542 504.0 0.1 q
q543 509.0 0.1 q
q544 477.0 0.1 q
q545 443.0 0.1 q
q546 452.0 0.1 q
q547 426.0 0.1 q
q548 449.0 0.1 q
q549 445.0 0.1 q
q550 452.0 0.1 q
q551 442.0 0.1 q
q552 448.0 0.1 q
q553 417.0 0.1 q
q554 444.0 0.1 q
q555 465.0 0.1 q
q556 471.0 0.1 q
q557 497.0 0.1 q
q558 490.0 0.1 q
q559 526.0 0.1 q
q560 506.0 0.1 q
q561 494.0 0.1 q
q562 484.0 0.1 q
q563 494.0 0.1 q
q564 525.0 0.1 q
q565 524.0 0.1 q
q566 2790.0 0.1 q
q567 1170.0 0.1 q
q568 892.0 0.1 q
q569 867.0 0.1 q
q570 811.0 0.1 q
q571 789.0 0.1 q
q572 758.0 0.1 q
q573 699.0 0.1 q
q574 661.0 0.1 q
q575 664.0 0.1 q
q576 674.0 0.1 q
q577 698.0 0.1 q
q578 682.0 0.1 q
q579 655.0 0.1 q
q580 652.0 0.1 q
q581 700.0 0.1 q
q582 740.0 0.1 q
q583 771.0 0.1 q
q584 746.0 0.1 q
q585 728.0 0.1 q
q586 727.0 0.1 q
q587 778.0 0.1 q
q588 840.0 0.1 q
q589 882.0 0.1 q
q590 896.0 0.1 q
q591 852.0 0.1 q
q592 847.0 0.1 q
q593 856.0 0.1 q
q594 853.0 0.1 q
q595 843.0 0.1 q
q596 845.0 0.1 q
q597 810.0 0.1 q
q598 770.0 0.1 q
q599 842.0 0.1 q
q600 931.0 0.1 q
q601 997.0 0.1 q
q602 1080.0 0.1 q
q603 1010.0 0.1 q
q604 1050.0 0.1 q
q605 987.0 0.1 q
q606 985.0 0.1 q
q607 1000.0 0.1 q
q608 1070.0 0.1 q
q609 1150.0 0.1 q
q610 1140.0 0.1 q
q611 1130.0 0.1 q
q612 1060.0 0.1 q
q613 1040.0 0.1 q
q614 1050.0 0.1 q
q615 1050.0 0.1 q
q616 1040.0 0.1 q
q617 1040.0 0.1 q
q618 1070.0 0.1 q
q619 1090.0 0.1 q
q620 1160.0 0.1 q
q621 1160.0 0.1 q
q622 1170.0 0.1 q
q623 1130.0 0.1 q
q624 1180.0 0.1 q
q625 1240.0 0.1 q
q626 1310.0 0.1 q
q627 1260.0 0.1 q
q628 1200.0 0.1 q
q629 1230.0 0.1 q
q630 1340.0 0.1 q
q631 1440.0 0.1 q
q632 1290.0 0.1 q
q633 1220.0 0.1 q
q634 1230.0 0.1 q
q635 1300.0 0.1 q
q636 1200.0 0.1 q
q637 1170.0 0.1 q
q638 1150.0 0.1 q
q639 1130.0 0.1 q
q640 1070.0 0.1 q
q641 1070.0 0.1 q
q642 1130.0 0.1 q
q643 1170.0 0.1 q
q644 1290.0 0.1 q
q645 1410.0 0.1 q
q646 1260.0 0.1 q
q647 1290.0 0.1 q
q648 1490.0 0.1 q
q649 1710.0 0.1 q
q650 1750.0 0.1 q
q651 1840.0 0.1 q
q652 1900.0 0.1 q
q653 1980.0 0.1 q
q654 2090.0 0.1 q
q655 2130.0 0.1 q
q656 2240.0 0.1 q
q657 2300.0 0.1 q
q658 2360.0 0.1 q
q659 2280.0 0.1 q
q660 2240.0 0.1 q
q661 2360.0 0.1 q
q662 2510.0 0.1 q
q663 2450.0 0.1 q
q664 2540.0 0.1 q
q665 2640.0 0.1 q
q666 3290.0 0.1 q
q667 3010.0 0.1 q
q668 2600.0 0.1 q
q669 2570.0 0.1 q
q670 2600.0 0.1 q
q671 2840.0 0.1 q
q672 3290.0 0.1 q
q673 3540.0 0.1 q
q674 3550.0 0.1 q
q675 3330.0 0.1 q
q676 3000.0 0.1 q
q677 2820.0 0.1 q
q678 2710.0 0.1 q
q679 2490.0 0.1 q
q680 2290.0 0.1 q
q681 2310.0 0.1 q
q682 2450.0 0.1 q
q683 2620.0 0.1 q
q684 2710.0 0.1 q
q685 2730.0 0.1 q
q686 2850.0 0.1 q
q687 3090.0 0.1 q
q688 3550.0 0.1 q
q689 3670.0 0.1 q
q690 3640.0 0.1 q
q691 3440.0 0.1 q
q692 3400.0 0.1 q
q693 3400.0 0.1 q
q694 3110.0 0.1 q
q695 2930.0 0.1 q
q696 2820.0 0.1 q
q697 2740.0 0.1 q
q698 2740.0 0.1 q
q699 2670.0 0.1 q
q700 2610.0 0.1 q
q701 2590.0 0.1 q
q702 2470.0 0.1 q
q703 2360.0 0.1 q
q704 2210.0 0.1 q
q705 2090.0 0.1 q
q706 2029.9999999999998 0.1 q
q707 2000.0 0.1 q
q708 1920.0 0.1 q
q709 1880.0 0.1 q
q710 1770.0 0.1 q
q711 1670.0 0.1 q
q712 1620.0 0.1 q
q713 1560.0 0.1 q
q714 1540.0 0.1 q
q715 1460.0 0.1 q
q716 1380.0 0.1 q
q717 1370.0 0.1 q
q718 1310.0 0.1 q
q719 1250.0 0.1 q
q720 1160.0 0.1 q
q721 1110.0 0.1 q
q722 1050.0 0.1 q
q723 1010.0 0.1 q
q724 991.0 0.1 q
q725 1000.0 0.1 q
q726 1060.0 0.1 q
q727 1050.0 0.1 q
q728 961.0 0.1 q
q729 897.0 0.1 q
q730 879.0 0.1 q
q731 843.0 0.1 q
q732 798.0 0.1 q
q733 798.0 0.1 q
q734 783.0 0.1 q
q735 782.0 0.1 q
q736 825.0 0.1 q
q737 791.0 0.1 q
q738 760.0 0.1 q
q739 770.0 0.1 q
q740 754.0 0.1 q
q741 793.0 0.1 q
q742 796.0 0.1 q
q743 780.0 0.1 q
q744 763.0 0.1 q
q745 758.0 0.1 q
q746 755.0 0.1 q
q747 768.0 0.1 q
q748 810.0 0.1 q
q749 706.0 0.1 q
q750 662.0 0.1 q
q751 648.0 0.1 q
q752 604.0 0.1 q
q753 597.0 0.1 q
q754 570.0 0.1 q
q755 547.0 0.1 q
q756 565.0 0.1 q
q757 567.0 0.1 q
q758 561.0 0.1 q
q759 543.0 0.1 q
q760 541.0 0.1 q
q761 501.0 0.1 q
q762 498.0 0.1 q
q763 541.0 0.1 q
q764 460.0 0.1 q
q765 367.0 0.1 q
q766 338.0 0.1 q
q767 323.0 0.1 q
q768 305.0 0.1 q
q769 315.0 0.1 q
q770 316.0 0.1 q
q771 356.0 0.1 q
q772 419.0 0.1 q
q773 373.0 0.1 q
q774 450.0 0.1 q
q775 450.0 0.1 q
q776 454.0 0.1 q
q777 445.0 0.1 q
q778 438.0 0.1 q
q779 470.0 0.1 q
q780 432.0 0.1 q
q781 363.0 0.1 q
q782 353.0 0.1 q
q783 331.0 0.1 q
q784 329.0 0.1 q
q785 318.0 0.1 q
q786 326.0 0.1 q
q787 343.0 0.1 q
q788 340.0 0.1 q
q789 304.0 0.1 q
q790 304.0 0.1 q
q791 315.0 0.1 q
q792 371.0 0.1 q
q793 398.0 0.1 q
q794 446.0 0.1 q
q795 452.0 0.1 q
q796 404.0 0.1 q
q797 419.0 0.1 q
q798 426.0 0.1 q
q799 471.0 0.1 q
q800 543.0 0.1 q
q801 587.0 0.1 q
q802 576.0 0.1 q
q803 574.0 0.1 q
q804 603.0 0.1 q
q805 612.0 0.1 q
q806 589.0 0.1 q
q807 550.0 0.1 q
q808 588.0 0.1 q
q809 570.0 0.1 q
q810 555.0 0.1 q
q811 504.0 0.1 q
q812 487.0 0.1 q
q813 479.0 0.1 q
q814 456.0 0.1 q
q815 425.0 0.1 q
q816 432.0 0.1 q
q817 417.0 0.1 q
q818 396.0 0.1 q
q819 365.0 0.1 q
q820 409.0 0.1 q
q821 370.0 0.1 q
q822 372.0 0.1 q
q823 413.0 0.1 q
q824 427.0 0.1 q
q825 433.0 0.1 q
q826 430.0 0.1 q
q827 429.0 0.1 q
q828 420.0 0.1 q
q829 416.0 0.1 q
q830 417.0 0.1 q
q831 650.0 0.1 q
q832 746.0 0.1 q
q833 697.0 0.1 q
q834 702.0 0.1 q
q835 717.0 0.1 q
q836 692.0 0.1 q
q837 667.0 0.1 q
q838 587.0 0.1 q
q839 551.0 0.1 q
q840 544.0 0.1 q
q841 523.0 0.1 q
q842 516.0 0.1 q
q843 518.0 0.1 q
q844 456.0 0.1 q
q845 350.0 0.1 q
q846 352.0 0.1 q
q847 519.0 0.1 q
q848 698.0 0.1 q
q849 731.0 0.1 q
q850 737.0 0.1 q
q851 727.0 0.1 q
q852 739.0 0.1 q
q853 726.0 0.1 q
q854 700.0 0.1 q
q855 701.0 0.1 q
q856 737.0 0.1 q
q857 689.0 0.1 q
q858 680.0 0.1 q
q859 658.0 0.1 q
q860 967.0 0.1 q
q861 1010.0 0.1 q
q862 1030.0 0.1 q
q863 1030.0 0.1 q
q864 1050.0 0.1 q
q865 1840.0 0.1 q
q866 1280.0 0.1 q
q867 1370.0 0.1 q
q868 1230.0 0.1 q
q869 1140.0 0.1 q
q870 1110.0 0.1 q
q871 955.0 0.1 q
q872 663.0 0.1 q
q873 724.0 0.1 q
q874 673.0 0.1 q
q875 723.0 0.1 q
q876 1730.0 0.1 q
q877 4330.0 0.1 q
q878 2770.0 0.1 q
q879 1960.0 0.1 q
q880 1620.0 0.1 q
q881 1410.0 0.1 q
q882 1260.0 0.1 q
q883 1150.0 0.1 q
q884 1130.0 0.1 q
q885 1110.0 0.1 q
q886 1380.0 0.1 q
q887 1460.0 0.1 q
q888 1410.0 0.1 q
q889 1310.0 0.1 q
q890 1250.0 0.1 q
q891 1250.0 0.1 q
q892 1270.0 0.1 q
q893 1290.0 0.1 q
q894 1280.0 0.1 q
q895 1260.0 0.1 q
q896 1240.0 0.1 q
q897 1230.0 0.1 q
q898 1230.0 0.1 q
q899 1210.0 0.1 q
q900 1180.0 0.1 q
q901 1210.0 0.1 q
q902 1280.0 0.1 q
q903 1350.0 0.1 q
q904 1430.0 0.1 q
q905 1480.0 0.1 q
q906 1580.0 0.1 q
q907 1950.0 0.1 q
q908 2490.0 0.1 q
q909 2430.0 0.1 q
q910 2250.0 0.1 q
q911 2020.0 0.1 q
q912 1900.0 0.1 q
q913 1780.0 0.1 q
q914 1840.0 0.1 q
q915 1750.0 0.1 q
q916 1720.0 0.1 q
q917 1720.0 0.1 q
q918 1600.0 0.1 q
q919 1530.0 0.1 q
q920 1540.0 0.1 q
q921 1460.0 0.1 q
q922 1510.0 0.1 q
q923 1480.0 0.1 q
q924 1440.0 0.1 q
q925 1430.0 0.1 q
q926 1580.0 0.1 q
q927 1630.0 0.1 q
q928 1650.0 0.1 q
q929 1660.0 0.1 q
q930 1700.0 0.1 q
q931 1740.0 0.1 q
q932 1810.0 0.1 q
q933 2009.9999999999998 0.1 q
q934 1840.0 0.1 q
q935 1920.0 0.1 q
q936 1730.0 0.1 q
q937 1710.0 0.1 q
q938 1690.0 0.1 q
q939 1730.0 0.1 q
q940 1880.0 0.1 q
q941 2029.9999999999998 0.1 q
q942 1960.0 0.1 q
q943 1950.0 0.1 q
q944 1900.0 0.1 q
q945 1910.0 0.1 q
q946 1930.0 0.1 q
q947 1870.0 0.1 q
q948 1910.0 0.1 q
q949 1920.0 0.1 q
q950 1980.0 0.1 q
q951 2020.0 0.1 q
q952 2120.0 0.1 q
q953 2320.0 0.1 q
q954 2660.0 0.1 q
q955 2790.0 0.1 q
q956 2930.0 0.1 q
q957 3070.0 0.1 q
q958 3040.0 0.1 q
q959 3070.0 0.1 q
q960 3040.0 0.1 q
q961 2970.0 0.1 q
q962 2720.0 0.1 q
q963 2630.0 0.1 q
q964 2580.0 0.1 q
q965 2510.0 0.1 q
q966 2480.0 0.1 q
q967 2550.0 0.1 q
q968 2500.0 0.1 q
q969 2640.0 0.1 q
q970 2800.0 0.1 q
q971 2750.0 0.1 q
q972 2680.0 0.1 q
q973 2710.0 0.1 q
q974 2610.0 0.1 q
q975 2550.0 0.1 q
q976 2430.0 0.1 q
q977 2800.0 0.1 q
q978 2820.0 0.1 q
q979 2840.0 0.1 q
q980 2780.0 0.1 q
q981 2720.0 0.1 q
q982 2600.0 0.1 q
q983 2520.0 0.1 q
q984 2460.0 0.1 q
q985 2500.0 0.1 q
q986 2520.0 0.1 q
q987 2150.0 0.1 q
q988 2490.0 0.1 q
q989 2280.0 0.1 q
q990 1870.0 0.1 q
q991 2610.0 0.1 q
q992 2540.0 0.1 q
q993 2510.0 0.1 q
q994 2400.0 0.1 q
q995 2450.0 0.1 q
q996 2540.0 0.1 q
q997 2550.0 0.1 q
q998 2900.0 0.1 q
q999 3240.0 0.1 q
q1000 3660.0 0.1 q
q1001 4290.0 0.1 q
q1002 4380.0 0.1 q
q1003 4290.0 0.1 q
q1004 4140.0 0.1 q
q1005 4430.0 0.1 q
q1006 4820.0 0.1 q
q1007 4650.0 0.1 q
q1008 4390.0 0.1 q
q1009 4090.0 0.1 q
q1010 4170.0 0.1 q
q1011 3840.0 0.1 q
q1012 3710.0 0.1 q
q1013 3810.0 0.1 q
q1014 4110.0 0.1 q
q1015 4350.0 0.1 q
q1016 4720.0 0.1 q
q1017 5870.0 0.1 q
q1018 7280.0 0.1 q
q1019 7900.0 0.1 q
q1020 8220.0 0.1 q
q1021 9140.0 0.1 q
q1022 9700.0 0.1 q
q1023 7270.0 0.1 q
q1024 6210.0 0.1 q
q1025 5390.0 0.1 q
q1026 4870.0 0.1 q
q1027 4420.0 0.1 q
q1028 3660.0 0.1 q
q1029 3730.0 0.1 q
q1030 3570.0 0.1 q
q1031 3460.0 0.1 q
q1032 3800.0 0.1 q
q1033 3830.0 0.1 q
q1034 3880.0 0.1 q
q1035 4350.0 0.1 q
q1036 5100.0 0.1 q
q1037 5240.0 0.1 q
q1038 4420.0 0.1 q
q1039 4400.0 0.1 q
q1040 4590.0 0.1 q
q1041 4860.0 0.1 q
q1042 4630.0 0.1 q
q1043 4530.0 0.1 q
q1044 4350.0 0.1 q
q1045 4040.0 0.1 q
q1046 4170.0 0.1 q
q1047 4490.0 0.1 q
q1048 5010.0 0.1 q
q1049 5570.0 0.1 q
q1050 6410.0 0.1 q
q1051 7250.0 0.1 q
q1052 7410.0 0.1 q
q1053 8350.0 0.1 q
q1054 7620.0 0.1 q
q1055 7240.0 0.1 q
q1056 7790.0 0.1 q
q1057 8680.0 0.1 q
q1058 9750.0 0.1 q
q1059 9240.0 0.1 q
q1060 11100.0 0.1 q
q1061 12700.0 0.1 q
q1062 11300.0 0.1 q
q1063 11500.0 0.1 q
q1064 10900.0 0.1 q
q1065 9250.0 0.1 q
q1066 8940.0 0.1 q
q1067 8350.0 0.1 q
q1068 8750.0 0.1 q
q1069 8490.0 0.1 q
q1070 8170.0 0.1 q
q1071 8020.0 0.1 q
q1072 7920.0 0.1 q
q1073 8070.0 0.1 q
q1074 7850.0 0.1 q
q1075 7810.0 0.1 q
q1076 7980.0 0.1 q
q1077 8200.0 0.1 q
q1078 8700.0 0.1 q
q1079 8780.0 0.1 q
q1080 8730.0 0.1 q
q1081 8500.0 0.1 q
q1082 7930.0 0.1 q
q1083 7650.0 0.1 q
q1084 7180.0 0.1 q
q1085 6600.0 0.1 q
q1086 6060.0 0.1 q
q1087 5790.0 0.1 q
q1088 5550.0 0.1 q
q1089 5260.0 0.1 q
q1090 4940.0 0.1 q
q1091 4880.0 0.1 q
q1092 4900.0 0.1 q
q1093 4810.0 0.1 q
q1094 4740.0 0.1 q
q1095 4680.0 0.1 q
q1096 4560.0 0.1 q
q1097 4520.0 0.1 q
q1098 4360.0 0.1 q
q1099 4260.0 0.1 q
q1100 4110.0 0.1 q
q1101 3930.0 0.1 q
q1102 3800.0 0.1 q
q1103 3590.0 0.1 q
q1104 3510.0 0.1 q
q1105 3260.0 0.1 q
q1106 3220.0 0.1 q
q1107 3170.0 0.1 q
q1108 3170.0 0.1 q
q1109 3090.0 0.1 q
q1110 3110.0 0.1 q
q1111 3070.0 0.1 q
q1112 3090.0 0.1 q
q1113 3080.0 0.1 q
q1114 3070.0 0.1 q
q1115 3040.0 0.1 q
q1116 2910.0 0.1 q
q1117 2940.0 0.1 q
q1118 2940.0 0.1 q
q1119 2680.0 0.1 q
q1120 2470.0 0.1 q
q1121 2610.0 0.1 q
q1122 2420.0 0.1 q
q1123 2240.0 0.1 q
q1124 2150.0 0.1 q
q1125 2050.0 0.1 q
q1126 1850.0 0.1 q
q1127 1710.0 0.1 q
q1128 1670.0 0.1 q
q1129 1680.0 0.1 q
q1130 1600.0 0.1 q
q1131 1580.0 0.1 q
q1132 1510.0 0.1 q
q1133 1480.0 0.1 q
q1134 1480.0 0.1 q
q1135 1560.0 0.1 q
q1136 1550.0 0.1 q
q1137 1510.0 0.1 q
q1138 1460.0 0.1 q
q1139 1350.0 0.1 q
q1140 1290.0 0.1 q
q1141 1230.0 0.1 q
q1142 1270.0 0.1 q
q1143 1230.0 0.1 q
q1144 1000.0 0.1 q
q1145 750.0 0.1 q
q1146 602.0 0.1 q
q1147 527.0 0.1 q
q1148 400.0 0.1 q
q1149 293.0 0.1 q
q1150 278.0 0.1 q
q1151 396.0 0.1 q
q1152 639.0 0.1 q
q1153 1160.0 0.1 q
q1154 1100.0 0.1 q
q1155 1170.0 0.1 q
q1156 1220.0 0.1 q
q1157 1100.0 0.1 q
q1158 1050.0 0.1 q
q1159 1020.0 0.1 q
q1160 1050.0 0.1 q
q1161 997.0 0.1 q
q1162 1050.0 0.1 q
q1163 1090.0 0.1 q
q1164 1030.0 0.1 q
q1165 988.0 0.1 q
q1166 992.0 0.1 q
q1167 907.0 0.1 q
q1168 893.0 0.1 q
q1169 891.0 0.1 q
q1170 924.0 0.1 q
q1171 918.0 0.1 q
q1172 926.0 0.1 q
q1173 921.0 0.1 q
q1174 888.0 0.1 q
q1175 850.0 0.1 q
q1176 865.0 0.1 q
q1177 886.0 0.1 q
q1178 883.0 0.1 q
q1179 875.0 0.1 q
q1180 863.0 0.1 q
q1181 851.0 0.1 q
q1182 831.0 0.1 q
q1183 820.0 0.1 q
q1184 820.0 0.1 q
q1185 817.0 0.1 q
q1186 804.0 0.1 q
q1187 790.0 0.1 q
q1188 741.0 0.1 q
q1189 739.0 0.1 q
q1190 762.0 0.1 q
q1191 760.0 0.1 q
q1192 758.0 0.1 q
q1193 747.0 0.1 q
q1194 757.0 0.1 q
q1195 805.0 0.1 q
q1196 794.0 0.1 q
q1197 766.0 0.1 q
q1198 758.0 0.1 q
q1199 757.0 0.1 q
q1200 740.0 0.1 q
q1201 740.0 0.1 q
q1202 732.0 0.1 q
q1203 730.0 0.1 q
q1204 737.0 0.1 q
q1205 724.0 0.1 q
q1206 709.0 0.1 q
q1207 714.0 0.1 q
q1208 710.0 0.1 q
q1209 707.0 0.1 q
q1210 711.0 0.1 q
q1211 723.0 0.1 q
q1212 729.0 0.1 q
q1213 720.0 0.1 q
q1214 715.0 0.1 q
q1215 705.0 0.1 q
q1216 696.0 0.1 q
q1217 695.0 0.1 q
q1218 712.0 0.1 q
q1219 808.0 0.1 q
q1220 798.0 0.1 q
q1221 784.0 0.1 q
q1222 753.0 0.1 q
q1223 717.0 0.1 q
q1224 722.0 0.1 q
q1225 741.0 0.1 q
q1226 774.0 0.1 q
q1227 784.0 0.1 q
q1228 773.0 0.1 q
q1229 781.0 0.1 q
q1230 734.0 0.1 q
q1231 686.0 0.1 q
q1232 706.0 0.1 q
q1233 711.0 0.1 q
q1234 743.0 0.1 q
q1235 777.0 0.1 q
q1236 793.0 0.1 q
q1237 879.0 0.1 q
q1238 1130.0 0.1 q
q1239 1010.0 0.1 q
q1240 967.0 0.1 q
q1241 912.0 0.1 q
q1242 888.0 0.1 q
q1243 877.0 0.1 q
q1244 882.0 0.1 q
q1245 898.0 0.1 q
q1246 910.0 0.1 q
q1247 910.0 0.1 q
q1248 908.0 0.1 q
q1249 947.0 0.1 q
q1250 940.0 0.1 q
q1251 928.0 0.1 q
q1252 920.0 0.1 q
q1253 924.0 0.1 q
q1254 932.0 0.1 q
q1255 920.0 0.1 q
q1256 964.0 0.1 q
q1257 999.0 0.1 q
q1258 966.0 0.1 q
q1259 927.0 0.1 q
q1260 900.0 0.1 q
q1261 912.0 0.1 q
q1262 1010.0 0.1 q
q1263 946.0 0.1 q
q1264 928.0 0.1 q
q1265 888.0 0.1 q
q1266 864.0 0.1 q
q1267 870.0 0.1 q
q1268 855.0 0.1 q
q1269 868.0 0.1 q
q1270 852.0 0.1 q
q1271 833.0 0.1 q
q1272 832.0 0.1 q
q1273 812.0 0.1 q
q1274 792.0 0.1 q
q1275 785.0 0.1 q
q1276 769.0 0.1 q
q1277 742.0 0.1 q
q1278 696.0 0.1 q
q1279 680.0 0.1 q
q1280 620.0 0.1 q
q1281 539.0 0.1 q
q1282 562.0 0.1 q
q1283 566.0 0.1 q
q1284 635.0 0.1 q
q1285 679.0 0.1 q
q1286 801.0 0.1 q
q1287 888.0 0.1 q
q1288 888.0 0.1 q
q1289 895.0 0.1 q
q1290 912.0 0.1 q
q1291 945.0 0.1 q
q1292 978.0 0.1 q
q1293 1000.0 0.1 q
q1294 1010.0 0.1 q
q1295 1010.0 0.1 q
q1296 1030.0 0.1 q
q1297 1050.0 0.1 q
q1298 1010.0 0.1 q
q1299 946.0 0.1 q
q1300 934.0 0.1 q
q1301 914.0 0.1 q
q1302 908.0 0.1 q
q1303 895.0 0.1 q
q1304 873.0 0.1 q
q1305 861.0 0.1 q
q1306 840.0 0.1 q
q1307 810.0 0.1 q
q1308 834.0 0.1 q
q1309 840.0 0.1 q
q1310 821.0 0.1 q
q1311 843.0 0.1 q
q1312 847.0 0.1 q
q1313 846.0 0.1 q
q1314 867.0 0.1 q
q1315 839.0 0.1 q
q1316 802.0 0.1 q
q1317 789.0 0.1 q
q1318 732.0 0.1 q
q1319 752.0 0.1 q
q1320 713.0 0.1 q
q1321 634.0 0.1 q
q1322 594.0 0.1 q
q1323 558.0 0.1 q
q1324 574.0 0.1 q
q1325 543.0 0.1 q
q1326 449.0 0.1 q
q1327 442.0 0.1 q
q1328 372.0 0.1 q
q1329 779.0 0.1 q
q1330 803.0 0.1 q
q1331 712.0 0.1 q
q1332 638.0 0.1 q
q1333 602.0 0.1 q
q1334 595.0 0.1 q
q1335 595.0 0.1 q
q1336 571.0 0.1 q
q1337 799.0 0.1 q
q1338 785.0 0.1 q
q1339 764.0 0.1 q
q1340 773.0 0.1 q
q1341 787.0 0.1 q
q1342 795.0 0.1 q
q1343 807.0 0.1 q
q1344 795.0 0.1 q
q1345 802.0 0.1 q
q1346 815.0 0.1 q
q1347 829.0 0.1 q
q1348 818.0 0.1 q
q1349 815.0 0.1 q
q1350 779.0 0.1 q
q1351 689.0 0.1 q
q1352 674.0 0.1 q
q1353 689.0 0.1 q
q1354 673.0 0.1 q
q1355 671.0 0.1 q
q1356 667.0 0.1 q
q1357 685.0 0.1 q
q1358 673.0 0.1 q
q1359 682.0 0.1 q
q1360 691.0 0.1 q
q1361 710.0 0.1 q
q1362 684.0 0.1 q
q1363 682.0 0.1 q
q1364 668.0 0.1 q
q1365 660.0 0.1 q
q1366 682.0 0.1 q
q1367 668.0 0.1 q
q1368 679.0 0.1 q
q1369 680.0 0.1 q
q1370 693.0 0.1 q
q1371 736.0 0.1 q
q1372 742.0 0.1 q
q1373 733.0 0.1 q
q1374 758.0 0.1 q
q1375 789.0 0.1 q
q1376 791.0 0.1 q
q1377 780.0 0.1 q
q1378 768.0 0.1 q
q1379 779.0 0.1 q
q1380 785.0 0.1 q
q1381 845.0 0.1 q
q1382 1010.0 0.1 q
q1383 1200.0 0.1 q
q1384 1420.0 0.1 q
q1385 1440.0 0.1 q
q1386 1290.0 0.1 q
q1387 1240.0 0.1 q
q1388 1240.0 0.1 q
q1389 1300.0 0.1 q
q1390 1260.0 0.1 q
q1391 1230.0 0.1 q
q1392 1290.0 0.1 q
q1393 1290.0 0.1 q
q1394 1160.0 0.1 q
q1395 1040.0 0.1 q
q1396 954.0 0.1 q
q1397 912.0 0.1 q
q1398 979.0 0.1 q
q1399 1000.0 0.1 q
q1400 1100.0 0.1 q
q1401 1030.0 0.1 q
q1402 1000.0 0.1 q
q1403 1020.0 0.1 q
q1404 985.0 0.1 q
q1405 883.0 0.1 q
q1406 920.0 0.1 q
q1407 944.0 0.1 q
q1408 944.0 0.1 q
q1409 915.0 0.1 q
q1410 884.0 0.1 q
q1411 879.0 0.1 q
q1412 858.0 0.1 q
q1413 823.0 0.1 q
q1414 765.0 0.1 q
q1415 796.0 0.1 q
q1416 784.0 0.1 q
q1417 803.0 0.1 q
q1418 814.0 0.1 q
q1419 754.0 0.1 q
q1420 765.0 0.1 q
q1421 747.0 0.1 q
q1422 708.0 0.1 q
q1423 657.0 0.1 q
q1424 466.0 0.1 q
q1425 425.0 0.1 q
q1426 404.0 0.1 q
q1427 291.0 0.1 q
q1428 501.0 0.1 q
q1429 404.0 0.1 q
q1430 309.0 0.1 q
q1431 273.0 0.1 q
q1432 239.0 0.1 q
q1433 180.0 0.1 q
q1434 99.0 0.1 q
q1435 67.0 0.1 q
q1436 38.0 0.1 q
q1437 420.0 0.1 q
q1438 478.0 0.1 q
q1439 350.0 0.1 q
q1440 461.0 0.1 q
q1441 411.0 0.1 q
q1442 341.0 0.1 q
q1443 239.0 0.1 q
q1444 209.0 0.1 q
q1445 242.0 0.1 q
q1446 268.0 0.1 q
q1447 253.0 0.1 q
q1448 249.0 0.1 q
q1449 257.0 0.1 q
q1450 254.0 0.1 q
q1451 258.0 0.1 q
q1452 238.0 0.1 q
q1453 200.0 0.1 q
q1454 201.0 0.1 q
q1455 222.0 0.1 q
q1456 244.0 0.1 q
q1457 250.0 0.1 q
q1458 248.0 0.1 q
q1459 235.0 0.1 q
q1460 225.0 0.1 q
q1461 232.0 0.1 q
q1462 233.0 0.1 q
q1463 201.0 0.1 q
q1464 188.0 0.1 q
q1465 144.0 0.1 q
q1466 115.0 0.1 q
q1467 105.0 0.1 q
q1468 102.0 0.1 q
q1469 122.0 0.1 q
q1470 166.0 0.1 q
q1471 264.0 0.1 q
q1472 219.0 0.1 q
q1473 217.0 0.1 q
q1474 223.0 0.1 q
q1475 180.0 0.1 q
q1476 138.0 0.1 q
q1477 177.0 0.1 q
q1478 205.0 0.1 q
q1479 216.0 0.1 q
q1480 225.0 0.1 q
q1481 220.0 0.1 q
q1482 222.0 0.1 q
q1483 216.0 0.1 q
q1484 102.0 0.1 q
q1485 111.0 0.1 q
q1486 148.0 0.1 q
q1487 153.0 0.1 q
q1488 49.0 0.1 q
q1489 50.0 0.1 q
q1490 44.0 0.1 q
q1491 42.0 0.1 q
q1492 38.0 0.1 q