pcf
* control data
restart estimation
42    9927      18       0       2
2    2 single point   1   0   0
10.0  -3  0.3  0.03  10  lamforgive derforgive
10.0  10.0  0.001
0.1  noaui
   50  0.005  4  4  0.005  4
0 0 0  PARSAVEITN
* singular value decomposition
1
42 5E-07
0
* parameter groups
ddsd         relative 0.025  0.0  switch  2.0 parabolic 1.0e-4 0.5 smaller
ddsw         relative 0.025  0.0  switch  2.0 parabolic 1.0e-4 0.5 smaller
ddgd         relative 0.025  0.0  switch  2.0 parabolic 1.0e-4 0.5 smaller
ddgw         relative 0.025  0.0  switch  2.0 parabolic 1.0e-4 0.5 smaller
rcsd         relative 0.025  0.0  switch  2.0 parabolic 1.0e-4 0.5 smaller
rcsw         relative 0.025  0.0  switch  2.0 parabolic 1.0e-4 0.5 smaller
rcrd         relative 0.025  0.0  switch  2.0 parabolic 1.0e-4 0.5 smaller
rcrw         relative 0.025  0.0  switch  2.0 parabolic 1.0e-4 0.5 smaller
rcgd         relative 0.025  0.0  switch  2.0 parabolic 1.0e-4 0.5 smaller
rcgw         relative 0.025  0.0  switch  2.0 parabolic 1.0e-4 0.5 smaller
tl           relative 0.025  0.0  switch  2.0 parabolic 1.0e-4 0.5 smaller
xw           relative 0.025  0.0  switch  2.0 parabolic 1.0e-4 0.5 smaller
yw           relative 0.03  0.0  switch  2.0 parabolic 1.0e-4 0.5 smaller
x           relative 0.025  0.0  switch  2.0 parabolic 1.0e-4 0.5 smaller
y            relative 0.025  0.0  switch  2.0 parabolic 1.0e-4 0.5 smaller
tlr			 relative 0.5  0.0  switch  2.0 parabolic 1.0e-4 0.5 smaller
tls			 relative 0.5  0.0  switch  2.0 parabolic 1.0e-4 0.5 smaller
beta			 relative 0.025  0.0  switch  2.0 parabolic 1.0e-4 0.5 smaller
* parameter data
ddsd	log	factor   0.1469200      1.00e-01	2.1	ddsd	1	0	1
ddsw	log	factor   0.1572800      1.00e-01	2.1	ddsw	1	0	1
ddgd	log	factor   0.8104796      1.00e-08	2.1	ddgd	1	0	1
ddgw	log	factor   0.2209261      1.00e-08	2.1	ddgw	1	0	1
rcs1d	log	factor   0.9002179      1.00e-08	2	rcsd	1	0	1
rcs1w	log	factor   0.9000000      1.00e-08	2	rcsw	1	0	1
rcs2d	log	factor    1.315261      1.00e-08	2	rcsd	1	0	1
rcs2w	log	factor    1.039480      1.00e-08	2	rcsw	1	0	1
rcs3d	log	factor   1.1882745E-02  1.00e-08	1	rcsd	1	0	1
rcs3w	log	factor    1.000000      1.00e-08	1	rcsw	1	0	1
rcs4d	log	factor   1.7512834E-03  1.00e-08	1	rcsd	1	0	1
rcs4w	log	factor   2.1175878E-03  1.00e-08	1	rcsw	1	0	1
rcs5d	log	factor    1.000000      1.00e-08	1	rcsd	1	0	1
rcs5w	log	factor    1.000000      1.00e-08	1	rcsw	1	0	1
rcs6d	log	factor    1.000000      1.00e-08	1	rcsd	1	0	1
rcs6w	log	factor    1.000000      1.00e-08	1	rcsw	1	0	1
rcs7d	log	factor   7.9999392E-03  1.00e-08	1	rcsd	1	0	1
rcs7w	log	factor   2.6775292E-04  1.00e-08	1	rcsw	1	0	1
rcr1d	log	factor   1.8446580E-02  1.00e-08	1	rcrd	1	0	1
rcr1w	log	factor    1.000000      1.00e-08	1	rcrw	1	0	1
rcr2d	log	factor   1.6365579E-03  1.00e-08	1	rcrd	1	0	1
rcr2w	log	factor    1.000000      1.00e-08	1	rcrw	1	0	1
rcr3d	log	factor   0.9988490      1.00e-08	1	rcrd	1	0	1
rcr3w	log	factor   1.5966022E-02  1.00e-08	1	rcrw	1	0	1
rcr4d	log	factor   1.2344301E-03  1.00e-08	1	rcrd	1	0	1
rcr4w	log	factor   3.7968842E-03  1.00e-08	1	rcrw	1	0	1
rcr5d	log	factor   2.6068411E-04  1.00e-08	1	rcrd	1	0	1
rcr5w	log	factor   2.7395023E-03  1.00e-08	1	rcrw	1	0	1
rcr6d	log	factor   1.1155064E-04  1.00e-08	1	rcrd	1	0	1
rcr6w	log	factor   1.0122567E-03  1.00e-08	1	rcrw	1	0	1
rcr7d	log	factor   5.3544176E-05  1.00e-08	1	rcrd	1	0	1
rcr7w	log	factor   4.7721857E-04  1.00e-08	1	rcrw	1	0	1
rcgd	log	factor   9.4790345E-02  1.00e-08	2	rcgd	1	0	1
rcgw	log	factor    1.049575      1.00e-08	2	rcgw	1	0	1
tl	log	factor    5.000000      1.00e-08	5	tl	1	0	1
xw	log	factor    2.100000      1.00e-08	2.1	xw	1	0	1
yw	log	factor   0.1768574      1.00e-08	1	yw	1	0	1
x	log	factor    2.300000      1.00e-08	2.3	x	1	0	1
y	log	factor   0.2280571      1.00e-08	1	y	1	0	1
tlr	log	factor   6.8200000E-02  1.00e-08	10	tlr	1	0	1
tls	log	factor   0.2220000      1.00e-08	30	tls	1	0	1
beta	log	factor   0.6000000      2.00e-01	6e-01	beta	1	0	1
* observation groups
q
swe
* observation data
 q1                    995.0000       0.707119      q
 q2                    1040.000       0.707119      q
 q3                    966.0000       0.707119      q
 q4                    845.0000       0.707119      q
 q5                    949.0000       0.707119      q
 q6                    902.0000       0.707119      q
 q7                    812.0000       0.707119      q
 q8                    850.0000       0.707119      q
 q9                    878.0000       0.707119      q
 q10                   848.0000       0.707119      q
 q11                   734.0000       0.707119      q
 q12                   816.0000       0.707119      q
 q13                   912.0000       0.707119      q
 q14                   862.0000       0.707119      q
 q15                   915.0000       0.707119      q
 q17                   955.0000       0.707119      q
 q18                   777.0000       0.707119      q
 q19                   769.0000       0.707119      q
 q20                   716.0000       0.707119      q
 q21                   719.0000       0.707119      q
 q22                   831.0000       0.707119      q
 q23                   919.0000       0.707119      q
 q24                   718.0000       0.707119      q
 q25                   599.0000       0.707119      q
 q26                   687.0000       0.707119      q
 q27                   699.0000       0.707119      q
 q28                   637.0000       0.707119      q
 q29                   732.0000       0.707119      q
 q30                   872.0000       0.707119      q
 q31                   762.0000       0.707119      q
 q32                   530.0000       0.707119      q
 q33                   594.0000       0.707119      q
 q34                   628.0000       0.707119      q
 q35                   605.0000       0.707119      q
 q36                   699.0000       0.707119      q
 q37                   865.0000       0.707119      q
 q38                   802.0000       0.707119      q
 q39                   795.0000       0.707119      q
 q40                   801.0000       0.707119      q
 q41                   846.0000       0.707119      q
 q42                   859.0000       0.707119      q
 q43                   835.0000       0.707119      q
 q44                   606.0000       0.707119      q
 q45                   457.0000       0.707119      q
 q47                   452.0000       0.707119      q
 q48                   686.0000       0.707119      q
 q49                   830.0000       0.707119      q
 q50                   858.0000       0.707119      q
 q51                   858.0000       0.707119      q
 q52                   797.0000       0.707119      q
 q53                   804.0000       0.707119      q
 q54                   838.0000       0.707119      q
 q55                   904.0000       0.707119      q
 q56                   680.0000       0.707119      q
 q57                   593.0000       0.707119      q
 q58                   625.0000       0.707119      q
 q59                   575.0000       0.707119      q
 q61                   838.0000       0.707119      q
 q62                   877.0000       0.707119      q
 q63                   870.0000       0.707119      q
 q64                   864.0000       0.707119      q
 q65                   810.0000       0.707119      q
 q66                   843.0000       0.707119      q
 q67                   917.0000       0.707119      q
 q68                   769.0000       0.707119      q
 q69                   557.0000       0.707119      q
 q70                   591.0000       0.707119      q
 q71                   544.0000       0.707119      q
 q72                   662.0000       0.707119      q
 q73                   918.0000       0.707119      q
 q74                   824.0000       0.707119      q
 q75                   784.0000       0.707119      q
 q76                   815.0000       0.707119      q
 q77                   851.0000       0.707119      q
 q78                   863.0000       0.707119      q
 q79                   854.0000       0.707119      q
 q80                   717.0000       0.707119      q
 q81                   583.0000       0.707119      q
 q83                   631.0000       0.707119      q
 q84                   828.0000       0.707119      q
 q85                   923.0000       0.707119      q
 q87                   963.0000       0.707119      q
 q88                   830.0000       0.707119      q
 q89                   798.0000       0.707119      q
 q90                   790.0000       0.707119      q
 q91                   824.0000       0.707119      q
 q92                   714.0000       0.707119      q
 q93                   580.0000       0.707119      q
 q94                   574.0000       0.707119      q
 q95                   620.0000       0.707119      q
 q96                   751.0000       0.707119      q
 q97                   920.0000       0.707119      q
 q98                   862.0000       0.707119      q
 q99                   874.0000       0.707119      q
 q100                  872.0000       0.707119      q
 q101                  948.0000       0.707119      q
 q102                  898.0000       0.707119      q
 q103                  866.0000       0.707119      q
 q104                  704.0000       0.707119      q
 q105                  885.0000       0.707119      q
 q106                  1050.000       0.707119      q
 q107                  973.0000       0.707119      q
 q108                  1060.000       0.707119      q
 q110                  1010.000       0.707119      q
 q111                  846.0000       0.707119      q
 q112                  777.0000       0.707119      q
 q113                  822.0000       0.707119      q
 q114                  722.0000       0.707119      q
 q115                  698.0000       0.707119      q
 q116                  582.0000       0.707119      q
 q118                  487.0000       0.707119      q
 q119                  492.0000       0.707119      q
 q120                  633.0000       0.707119      q
 q121                  724.0000       0.707119      q
 q122                  752.0000       0.707119      q
 q123                  780.0000       0.707119      q
 q124                  779.0000       0.707119      q
 q125                  814.0000       0.707119      q
 q126                  785.0000       0.707119      q
 q127                  840.0000       0.707119      q
 q128                  726.0000       0.707119      q
 q129                  587.0000       0.707119      q
 q130                  533.0000       0.707119      q
 q132                  747.0000       0.707119      q
 q133                  750.0000       0.707119      q
 q134                  820.0000       0.707119      q
 q135                  863.0000       0.707119      q
 q136                  957.0000       0.707119      q
 q137                  895.0000       0.707119      q
 q138                  885.0000       0.707119      q
 q139                  940.0000       0.707119      q
 q140                  847.0000       0.707119      q
 q141                  884.0000       0.707119      q
 q142                  892.0000       0.707119      q
 q143                  851.0000       0.707119      q
 q144                  821.0000       0.707119      q
 q145                  790.0000       0.707119      q
 q146                  763.0000       0.707119      q
 q147                  837.0000       0.707119      q
 q148                  773.0000       0.707119      q
 q149                  740.0000       0.707119      q
 q150                  784.0000       0.707119      q
 q151                  704.0000       0.707119      q
 q152                  639.0000       0.707119      q
 q153                  585.0000       0.707119      q
 q155                  644.0000       0.707119      q
 q156                  718.0000       0.707119      q
 q157                  814.0000       0.707119      q
 q158                  808.0000       0.707119      q
 q159                  856.0000       0.707119      q
 q160                  832.0000       0.707119      q
 q161                  859.0000       0.707119      q
 q162                  775.0000       0.707119      q
 q163                  772.0000       0.707119      q
 q164                  810.0000       0.707119      q
 q165                  814.0000       0.707119      q
 q166                  918.0000       0.707119      q
 q167                  977.0000       0.707119      q
 q168                  914.0000       0.707119      q
 q169                  1020.000       0.707119      q
 q170                  875.0000       0.707119      q
 q171                  905.0000       0.707119      q
 q172                  978.0000       0.707119      q
 q173                  1060.000       0.707119      q
 q174                  1010.000       0.707119      q
 q175                  1010.000       0.707119      q
 q176                  968.0000       0.707119      q
 q177                  939.0000       0.707119      q
 q178                  1040.000       0.707119      q
 q179                  983.0000       0.707119      q
 q180                  969.0000       0.707119      q
 q181                  1080.000       0.707119      q
 q184                  1250.000       0.707119      q
 q185                  1220.000       0.707119      q
 q186                  1330.000       0.707119      q
 q187                  1400.000       0.707119      q
 q188                  1360.000       0.707119      q
 q189                  1400.000       0.707119      q
 q190                  1380.000       0.707119      q
 q191                  1450.000       0.707119      q
 q192                  1480.000       0.707119      q
 q193                  1360.000       0.707119      q
 q194                  1490.000       0.707119      q
 q195                  1480.000       0.707119      q
 q196                  1520.000       0.707119      q
 q197                  1560.000       0.707119      q
 q198                  1500.000       0.707119      q
 q199                  1530.000       0.707119      q
 q200                  1590.000       0.707119      q
 q201                  1540.000       0.707119      q
 q202                  1560.000       0.707119      q
 q203                  1830.000       0.707119      q
 q204                  1410.000       0.707119      q
 q205                  1510.000       0.707119      q
 q206                  1630.000       0.707119      q
 q207                  1770.000       0.707119      q
 q208                  1780.000       0.707119      q
 q209                  1870.000       0.707119      q
 q210                  1810.000       0.707119      q
 q212                  1850.000       0.707119      q
 q213                  1900.000       0.707119      q
 q214                  1910.000       0.707119      q
 q216                  1890.000       0.707119      q
 q217                  1780.000       0.707119      q
 q218                  1640.000       0.707119      q
 q219                  1600.000       0.707119      q
 q220                  1710.000       0.707119      q
 q221                  1730.000       0.707119      q
 q222                  1720.000       0.707119      q
 q223                  1760.000       0.707119      q
 q224                  1820.000       0.707119      q
 q225                  1810.000       0.707119      q
 q226                  1700.000       0.707119      q
 q227                  1610.000       0.707119      q
 q228                  1610.000       0.707119      q
 q229                  1590.000       0.707119      q
 q230                  1580.000       0.707119      q
 q231                  1550.000       0.707119      q
 q232                  1570.000       0.707119      q
 q233                  1650.000       0.707119      q
 q234                  1850.000       0.707119      q
 q235                  1750.000       0.707119      q
 q236                  1880.000       0.707119      q
 q237                  1840.000       0.707119      q
 q238                  1910.000       0.707119      q
 q239                  1900.000       0.707119      q
 q240                  1870.000       0.707119      q
 q241                  1720.000       0.707119      q
 q242                  1670.000       0.707119      q
 q243                  1560.000       0.707119      q
 q246                  1590.000       0.707119      q
 q247                  1720.000       0.707119      q
 q248                  1710.000       0.707119      q
 q249                  1690.000       0.707119      q
 q250                  1730.000       0.707119      q
 q251                  1770.000       0.707119      q
 q252                  1920.000       0.707119      q
 q253                  1990.000       0.707119      q
 q254                  2080.000       0.707119      q
 q255                  2350.000       0.707119      q
 q256                  2460.000       0.707119      q
 q257                  2470.000       0.707119      q
 q258                  2500.000       0.707119      q
 q259                  2440.000       0.707119      q
 q260                  2510.000       0.707119      q
 q261                  2650.000       0.707119      q
 q262                  2790.000       0.707119      q
 q263                  3050.000       0.707119      q
 q264                  2850.000       0.707119      q
 q265                  2710.000       0.707119      q
 q266                  2960.000       0.707119      q
 q267                  3480.000       0.707119      q
 q268                  3440.000       0.707119      q
 q269                  3720.000       0.707119      q
 q270                  3930.000       0.707119      q
 q271                  4050.000       0.707119      q
 q272                  4260.000       0.707119      q
 q273                  4620.000       0.707119      q
 q275                  5150.000       0.707119      q
 q276                  5460.000       0.707119      q
 q277                  4870.000       0.707119      q
 q278                  4620.000       0.707119      q
 q279                  4650.000       0.707119      q
 q280                  5180.000       0.707119      q
 q281                  5570.000       0.707119      q
 q282                  5880.000       0.707119      q
 q283                  5610.000       0.707119      q
 q284                  5680.000       0.707119      q
 q285                  5620.000       0.707119      q
 q286                  5500.000       0.707119      q
 q287                  5280.000       0.707119      q
 q288                  5580.000       0.707119      q
 q289                  5760.000       0.707119      q
 q290                  5780.000       0.707119      q
 q291                  5940.000       0.707119      q
 q292                  6020.000       0.707119      q
 q294                  5900.000       0.707119      q
 q295                  5520.000       0.707119      q
 q296                  5750.000       0.707119      q
 q297                  5720.000       0.707119      q
 q298                  5760.000       0.707119      q
 q299                  5490.000       0.707119      q
 q300                  4990.000       0.707119      q
 q301                  4730.000       0.707119      q
 q302                  4840.000       0.707119      q
 q303                  5370.000       0.707119      q
 q304                  5460.000       0.707119      q
 q305                  5400.000       0.707119      q
 q306                  5560.000       0.707119      q
 q307                  5280.000       0.707119      q
 q308                  5000.000       0.707119      q
 q309                  4820.000       0.707119      q
 q310                  4480.000       0.707119      q
 q311                  4530.000       0.707119      q
 q312                  4440.000       0.707119      q
 q313                  4690.000       0.707119      q
 q314                  4340.000       0.707119      q
 q315                  4250.000       0.707119      q
 q316                  4070.000       0.707119      q
 q317                  4230.000       0.707119      q
 q329                  5520.000       0.707119      q
 q330                  5560.000       0.707119      q
 q331                  5780.000       0.707119      q
 q332                  6210.000       0.707119      q
 q333                  6120.000       0.707119      q
 q334                  6120.000       0.707119      q
 q337                  5860.000       0.707119      q
 q338                  5690.000       0.707119      q
 q339                  5580.000       0.707119      q
 q340                  5510.000       0.707119      q
 q341                  5200.000       0.707119      q
 q342                  5240.000       0.707119      q
 q343                  5050.000       0.707119      q
 q344                  5090.000       0.707119      q
 q345                  4900.000       0.707119      q
 q346                  4780.000       0.707119      q
 q347                  4740.000       0.707119      q
 q348                  4780.000       0.707119      q
 q349                  4280.000       0.707119      q
 q350                  4080.000       0.707119      q
 q351                  4120.000       0.707119      q
 q352                  3780.000       0.707119      q
 q353                  3830.000       0.707119      q
 q354                  3930.000       0.707119      q
 q355                  3880.000       0.707119      q
 q356                  3720.000       0.707119      q
 q357                  3440.000       0.707119      q
 q358                  3160.000       0.707119      q
 q359                  3110.000       0.707119      q
 q360                  2860.000       0.707119      q
 q361                  2770.000       0.707119      q
 q362                  2820.000       0.707119      q
 q363                  2620.000       0.707119      q
 q364                  2560.000       0.707119      q
 q366                  2520.000       0.707119      q
 q367                  2630.000       0.707119      q
 q369                  3250.000       0.707119      q
 q370                  2980.000       0.707119      q
 q371                  3310.000       0.707119      q
 q372                  3190.000       0.707119      q
 q373                  3260.000       0.707119      q
 q374                  3230.000       0.707119      q
 q375                  3070.000       0.707119      q
 q376                  3010.000       0.707119      q
 q377                  2880.000       0.707119      q
 q378                  2900.000       0.707119      q
 q379                  2920.000       0.707119      q
 q380                  3010.000       0.707119      q
 q381                  3040.000       0.707119      q
 q382                  2740.000       0.707119      q
 q383                  2450.000       0.707119      q
 q384                  2470.000       0.707119      q
 q385                  2380.000       0.707119      q
 q386                  2360.000       0.707119      q
 q387                  2250.000       0.707119      q
 q388                  2160.000       0.707119      q
 q389                  2060.000       0.707119      q
 q390                  1830.000       0.707119      q
 q391                  1730.000       0.707119      q
 q392                  1670.000       0.707119      q
 q393                  1630.000       0.707119      q
 q394                  1530.000       0.707119      q
 q395                  1450.000       0.707119      q
 q396                  1410.000       0.707119      q
 q397                  1340.000       0.707119      q
 q398                  1240.000       0.707119      q
 q399                  1280.000       0.707119      q
 q400                  1360.000       0.707119      q
 q401                  1360.000       0.707119      q
 q402                  1280.000       0.707119      q
 q403                  1230.000       0.707119      q
 q404                  1300.000       0.707119      q
 q405                  1370.000       0.707119      q
 q406                  1360.000       0.707119      q
 q407                  1400.000       0.707119      q
 q408                  1310.000       0.707119      q
 q409                  1200.000       0.707119      q
 q410                  1290.000       0.707119      q
 q411                  1320.000       0.707119      q
 q412                  1370.000       0.707119      q
 q413                  1430.000       0.707119      q
 q415                  1510.000       0.707119      q
 q416                  1400.000       0.707119      q
 q417                  1430.000       0.707119      q
 q418                  1440.000       0.707119      q
 q419                  1400.000       0.707119      q
 q420                  1220.000       0.707119      q
 q421                  1250.000       0.707119      q
 q422                  1370.000       0.707119      q
 q423                  1240.000       0.707119      q
 q424                  1250.000       0.707119      q
 q425                  1280.000       0.707119      q
 q426                  1320.000       0.707119      q
 q427                  1340.000       0.707119      q
 q428                  1310.000       0.707119      q
 q429                  1370.000       0.707119      q
 q430                  1350.000       0.707119      q
 q431                  1380.000       0.707119      q
 q432                  1340.000       0.707119      q
 q433                  1390.000       0.707119      q
 q434                  1330.000       0.707119      q
 q435                  1270.000       0.707119      q
 q436                  1260.000       0.707119      q
 q437                  1080.000       0.707119      q
 q438                  1080.000       0.707119      q
 q439                  1070.000       0.707119      q
 q440                  1180.000       0.707119      q
 q441                  1170.000       0.707119      q
 q442                  1190.000       0.707119      q
 q443                  1070.000       0.707119      q
 q444                  1200.000       0.707119      q
 q445                  1240.000       0.707119      q
 q446                  1480.000       0.707119      q
 q448                  1450.000       0.707119      q
 q449                  1340.000       0.707119      q
 q450                  1370.000       0.707119      q
 q451                  1330.000       0.707119      q
 q452                  1350.000       0.707119      q
 q453                  1270.000       0.707119      q
 q454                  1200.000       0.707119      q
 q455                  1260.000       0.707119      q
 q456                  1220.000       0.707119      q
 q457                  1170.000       0.707119      q
 q458                  1180.000       0.707119      q
 q459                  1180.000       0.707119      q
 q460                  1180.000       0.707119      q
 q461                  1180.000       0.707119      q
 q462                  1170.000       0.707119      q
 q463                  1200.000       0.707119      q
 q464                  1120.000       0.707119      q
 q465                  1180.000       0.707119      q
 q466                  1280.000       0.707119      q
 q467                  1270.000       0.707119      q
 q468                  1210.000       0.707119      q
 q469                  1310.000       0.707119      q
 q470                  1290.000       0.707119      q
 q471                  1270.000       0.707119      q
 q472                  1290.000       0.707119      q
 q473                  1240.000       0.707119      q
 q474                  1200.000       0.707119      q
 q475                  1290.000       0.707119      q
 q477                  1210.000       0.707119      q
 q478                  1220.000       0.707119      q
 q479                  1220.000       0.707119      q
 q480                  1260.000       0.707119      q
 q481                  1160.000       0.707119      q
 q482                  1090.000       0.707119      q
 q484                  1040.000       0.707119      q
 q485                  1130.000       0.707119      q
 q486                  1070.000       0.707119      q
 q487                  1090.000       0.707119      q
 q488                  1100.000       0.707119      q
 q489                  1070.000       0.707119      q
 q491                  1070.000       0.707119      q
 q492                  1260.000       0.707119      q
 q493                  1320.000       0.707119      q
 q494                  1310.000       0.707119      q
 q495                  1420.000       0.707119      q
 q496                  1320.000       0.707119      q
 q497                  1330.000       0.707119      q
 q498                  1340.000       0.707119      q
 q499                  1340.000       0.707119      q
 q500                  1330.000       0.707119      q
 q501                  1340.000       0.707119      q
 q502                  1350.000       0.707119      q
 q503                  1350.000       0.707119      q
 q504                  1340.000       0.707119      q
 q505                  1310.000       0.707119      q
 q506                  1290.000       0.707119      q
 q507                  1270.000       0.707119      q
 q508                  1260.000       0.707119      q
 q509                  1260.000       0.707119      q
 q510                  1210.000       0.707119      q
 q511                  1140.000       0.707119      q
 q512                  1160.000       0.707119      q
 q513                  1100.000       0.707119      q
 q514                  1160.000       0.707119      q
 q515                  1100.000       0.707119      q
 q516                  1160.000       0.707119      q
 q517                  1140.000       0.707119      q
 q518                  1130.000       0.707119      q