pcf
* control data
restart estimation
42    9927      18       0       2
2    2 single point   1   0   0
10.0  -3  0.3  0.03  10  lamforgive derforgive
10.0  10.0  0.001
0.1  noaui
50  0.005  4  4  0.005  4
0 0 0  PARSAVEITN
* singular value decomposition
1
42 5E-07
0
* parameter groups
ddsd         relative 0.025  0.0  switch  2.0 parabolic 1.0e-4 0.5 smaller
ddsw         relative 0.025  0.0  switch  2.0 parabolic 1.0e-4 0.5 smaller
ddgd         relative 0.025  0.0  switch  2.0 parabolic 1.0e-4 0.5 smaller
ddgw         relative 0.025  0.0  switch  2.0 parabolic 1.0e-4 0.5 smaller
rcsd         relative 0.025  0.0  switch  2.0 parabolic 1.0e-4 0.5 smaller
rcsw         relative 0.025  0.0  switch  2.0 parabolic 1.0e-4 0.5 smaller
rcrd         relative 0.025  0.0  switch  2.0 parabolic 1.0e-4 0.5 smaller
rcrw         relative 0.025  0.0  switch  2.0 parabolic 1.0e-4 0.5 smaller
rcgd         relative 0.025  0.0  switch  2.0 parabolic 1.0e-4 0.5 smaller
rcgw         relative 0.025  0.0  switch  2.0 parabolic 1.0e-4 0.5 smaller
tl           relative 0.025  0.0  switch  2.0 parabolic 1.0e-4 0.5 smaller
xw           relative 0.025  0.0  switch  2.0 parabolic 1.0e-4 0.5 smaller
yw           relative 0.03  0.0  switch  2.0 parabolic 1.0e-4 0.5 smaller
x           relative 0.025  0.0  switch  2.0 parabolic 1.0e-4 0.5 smaller
y            relative 0.025  0.0  switch  2.0 parabolic 1.0e-4 0.5 smaller
tlr			 relative 0.5  0.0  switch  2.0 parabolic 1.0e-4 0.5 smaller
tls			 relative 0.5  0.0  switch  2.0 parabolic 1.0e-4 0.5 smaller
beta			 relative 0.025  0.0  switch  2.0 parabolic 1.0e-4 0.5 smaller
* parameter data
ddsd	log	factor   0.1469200      1.00e-01	2.1	ddsd	1	0	1
ddsw	log	factor   0.1572800      1.00e-01	2.1	ddsw	1	0	1
ddgd	log	factor   0.8104796      1.00e-08	2.1	ddgd	1	0	1
ddgw	log	factor   0.2209261      1.00e-08	2.1	ddgw	1	0	1
rcs1d	log	factor   0.9002179      1.00e-08	2	rcsd	1	0	1
rcs1w	log	factor   0.9000000      1.00e-08	2	rcsw	1	0	1
rcs2d	log	factor    1.315261      1.00e-08	2	rcsd	1	0	1
rcs2w	log	factor    1.039480      1.00e-08	2	rcsw	1	0	1
rcs3d	log	factor   1.1882745E-02  1.00e-08	1	rcsd	1	0	1
rcs3w	log	factor    1.000000      1.00e-08	1	rcsw	1	0	1
rcs4d	log	factor   1.7512834E-03  1.00e-08	1	rcsd	1	0	1
rcs4w	log	factor   2.1175878E-03  1.00e-08	1	rcsw	1	0	1
rcs5d	log	factor    1.000000      1.00e-08	1	rcsd	1	0	1
rcs5w	log	factor    1.000000      1.00e-08	1	rcsw	1	0	1
rcs6d	log	factor    1.000000      1.00e-08	1	rcsd	1	0	1
rcs6w	log	factor    1.000000      1.00e-08	1	rcsw	1	0	1
rcs7d	log	factor   7.9999392E-03  1.00e-08	1	rcsd	1	0	1
rcs7w	log	factor   2.6775292E-04  1.00e-08	1	rcsw	1	0	1
rcr1d	log	factor   1.8446580E-02  1.00e-08	1	rcrd	1	0	1
rcr1w	log	factor    1.000000      1.00e-08	1	rcrw	1	0	1
rcr2d	log	factor   1.6365579E-03  1.00e-08	1	rcrd	1	0	1
rcr2w	log	factor    1.000000      1.00e-08	1	rcrw	1	0	1
rcr3d	log	factor   0.9988490      1.00e-08	1	rcrd	1	0	1
rcr3w	log	factor   1.5966022E-02  1.00e-08	1	rcrw	1	0	1
rcr4d	log	factor   1.2344301E-03  1.00e-08	1	rcrd	1	0	1
rcr4w	log	factor   3.7968842E-03  1.00e-08	1	rcrw	1	0	1
rcr5d	log	factor   2.6068411E-04  1.00e-08	1	rcrd	1	0	1
rcr5w	log	factor   2.7395023E-03  1.00e-08	1	rcrw	1	0	1
rcr6d	log	factor   1.1155064E-04  1.00e-08	1	rcrd	1	0	1
rcr6w	log	factor   1.0122567E-03  1.00e-08	1	rcrw	1	0	1
rcr7d	log	factor   5.3544176E-05  1.00e-08	1	rcrd	1	0	1
rcr7w	log	factor   4.7721857E-04  1.00e-08	1	rcrw	1	0	1
rcgd	log	factor   9.4790345E-02  1.00e-08	2	rcgd	1	0	1
rcgw	log	factor    1.049575      1.00e-08	2	rcgw	1	0	1
tl	log	factor    5.000000      1.00e-08	5	tl	1	0	1
xw	log	factor    2.100000      1.00e-08	2.1	xw	1	0	1
yw	log	factor   0.1768574      1.00e-08	1	yw	1	0	1
x	log	factor    2.300000      1.00e-08	2.3	x	1	0	1
y	log	factor   0.2280571      1.00e-08	1	y	1	0	1
tlr	log	factor   6.8200000E-02  1.00e-08	10	tlr	1	0	1
tls	log	factor   0.2220000      1.00e-08	30	tls	1	0	1
beta	log	factor   0.6000000      2.00e-01	6e-01	beta	1	0	1
* observation groups
q
swe
* observation data
q1 995.0 1.0 q
q2 1040.0 1.0 q
q3 966.0 1.0 q
q4 845.0 1.0 q
q5 949.0 1.0 q
q6 902.0 1.0 q
q7 812.0 1.0 q
q8 850.0 1.0 q
q9 878.0 1.0 q
q10 848.0 1.0 q
q11 734.0 1.0 q
q12 816.0 1.0 q
q13 912.0 1.0 q
q14 862.0 1.0 q
q15 915.0 1.0 q
q17 955.0 1.0 q
q18 777.0 1.0 q
q19 769.0 1.0 q
q20 716.0 1.0 q
q21 719.0 1.0 q
q22 831.0 1.0 q
q23 919.0 1.0 q
q24 718.0 1.0 q
q25 599.0 1.0 q
q26 687.0 1.0 q
q27 699.0 1.0 q
q28 637.0 1.0 q
q29 732.0 1.0 q
q30 872.0 1.0 q
q31 762.0 1.0 q
q32 530.0 1.0 q
q33 594.0 1.0 q
q34 628.0 1.0 q
q35 605.0 1.0 q
q36 699.0 1.0 q
q37 865.0 1.0 q
q38 802.0 1.0 q
q39 795.0 1.0 q
q40 801.0 1.0 q
q41 846.0 1.0 q
q42 859.0 1.0 q
q43 835.0 1.0 q
q44 606.0 1.0 q
q45 457.0 1.0 q
q47 452.0 1.0 q
q48 686.0 1.0 q
q49 830.0 1.0 q
q50 858.0 1.0 q
q51 858.0 1.0 q
q52 797.0 1.0 q
q53 804.0 1.0 q
q54 838.0 1.0 q
q55 904.0 1.0 q
q56 680.0 1.0 q
q57 593.0 1.0 q
q58 625.0 1.0 q
q59 575.0 1.0 q
q61 838.0 1.0 q
q62 877.0 1.0 q
q63 870.0 1.0 q
q64 864.0 1.0 q
q65 810.0 1.0 q
q66 843.0 1.0 q
q67 917.0 1.0 q
q68 769.0 1.0 q
q69 557.0 1.0 q
q70 591.0 1.0 q
q71 544.0 1.0 q
q72 662.0 1.0 q
q73 918.0 1.0 q
q74 824.0 1.0 q
q75 784.0 1.0 q
q76 815.0 1.0 q
q77 851.0 1.0 q
q78 863.0 1.0 q
q79 854.0 1.0 q
q80 717.0 1.0 q
q81 583.0 1.0 q
q83 631.0 1.0 q
q84 828.0 1.0 q
q85 923.0 1.0 q
q87 963.0 1.0 q
q88 830.0 1.0 q
q89 798.0 1.0 q
q90 790.0 1.0 q
q91 824.0 1.0 q
q92 714.0 1.0 q
q93 580.0 1.0 q
q94 574.0 1.0 q
q95 620.0 1.0 q
q96 751.0 1.0 q
q97 920.0 1.0 q
q98 862.0 1.0 q
q99 874.0 1.0 q
q100 872.0 1.0 q
q101 948.0 1.0 q
q102 898.0 1.0 q
q103 866.0 1.0 q
q104 704.0 1.0 q
q105 885.0 1.0 q
q106 1050.0 1.0 q
q107 973.0 1.0 q
q108 1060.0 1.0 q
q110 1010.0 1.0 q
q111 846.0 1.0 q
q112 777.0 1.0 q
q113 822.0 1.0 q
q114 722.0 1.0 q
q115 698.0 1.0 q
q116 582.0 1.0 q
q118 487.0 1.0 q
q119 492.0 1.0 q
q120 633.0 1.0 q
q121 724.0 1.0 q
q122 752.0 1.0 q
q123 780.0 1.0 q
q124 779.0 1.0 q
q125 814.0 1.0 q
q126 785.0 1.0 q
q127 840.0 1.0 q
q128 726.0 1.0 q
q129 587.0 1.0 q
q130 533.0 1.0 q
q132 747.0 1.0 q
q133 750.0 1.0 q
q134 820.0 1.0 q
q135 863.0 1.0 q
q136 957.0 1.0 q
q137 895.0 1.0 q
q138 885.0 1.0 q
q139 940.0 1.0 q
q140 847.0 1.0 q
q141 884.0 1.0 q
q142 892.0 1.0 q
q143 851.0 1.0 q
q144 821.0 1.0 q
q145 790.0 1.0 q
q146 763.0 1.0 q
q147 837.0 1.0 q
q148 773.0 1.0 q
q149 740.0 1.0 q
q150 784.0 1.0 q
q151 704.0 1.0 q
q152 639.0 1.0 q
q153 585.0 1.0 q
q155 644.0 1.0 q
q156 718.0 1.0 q
q157 814.0 1.0 q
q158 808.0 1.0 q
q159 856.0 1.0 q
q160 832.0 1.0 q
q161 859.0 1.0 q
q162 775.0 1.0 q
q163 772.0 1.0 q
q164 810.0 1.0 q
q165 814.0 1.0 q
q166 918.0 1.0 q
q167 977.0 1.0 q
q168 914.0 1.0 q
q169 1020.0 1.0 q
q170 875.0 1.0 q
q171 905.0 1.0 q
q172 978.0 1.0 q
q173 1060.0 1.0 q
q174 1010.0 1.0 q
q175 1010.0 1.0 q
q176 968.0 1.0 q
q177 939.0 1.0 q
q178 1040.0 1.0 q
q179 983.0 1.0 q
q180 969.0 1.0 q
q181 1080.0 1.0 q
q184 1250.0 1.0 q
q185 1220.0 1.0 q
q186 1330.0 1.0 q
q187 1400.0 1.0 q
q188 1360.0 1.0 q
q189 1400.0 1.0 q
q190 1380.0 1.0 q
q191 1450.0 1.0 q
q192 1480.0 1.0 q
q193 1360.0 1.0 q
q194 1490.0 1.0 q
q195 1480.0 1.0 q
q196 1520.0 1.0 q
q197 1560.0 1.0 q
q198 1500.0 1.0 q
q199 1530.0 1.0 q
q200 1590.0 1.0 q
q201 1540.0 1.0 q
q202 1560.0 1.0 q
q203 1830.0 1.0 q
q204 1410.0 1.0 q
q205 1510.0 1.0 q
q206 1630.0 1.0 q
q207 1770.0 1.0 q
q208 1780.0 1.0 q
q209 1870.0 1.0 q
q210 1810.0 1.0 q
q212 1850.0 1.0 q
q213 1900.0 1.0 q
q214 1910.0 1.0 q
q216 1890.0 1.0 q
q217 1780.0 1.0 q
q218 1640.0 1.0 q
q219 1600.0 1.0 q
q220 1710.0 1.0 q
q221 1730.0 1.0 q
q222 1720.0 1.0 q
q223 1760.0 1.0 q
q224 1820.0 1.0 q
q225 1810.0 1.0 q
q226 1700.0 1.0 q
q227 1610.0 1.0 q
q228 1610.0 1.0 q
q229 1590.0 1.0 q
q230 1580.0 1.0 q
q231 1550.0 1.0 q
q232 1570.0 1.0 q
q233 1650.0 1.0 q
q234 1850.0 1.0 q
q235 1750.0 1.0 q
q236 1880.0 1.0 q
q237 1840.0 1.0 q
q238 1910.0 1.0 q
q239 1900.0 1.0 q
q240 1870.0 1.0 q
q241 1720.0 1.0 q
q242 1670.0 1.0 q
q243 1560.0 1.0 q
q246 1590.0 1.0 q
q247 1720.0 1.0 q
q248 1710.0 1.0 q
q249 1690.0 1.0 q
q250 1730.0 1.0 q
q251 1770.0 1.0 q
q252 1920.0 1.0 q
q253 1990.0 1.0 q
q254 2080.0 1.0 q
q255 2350.0 1.0 q
q256 2460.0 1.0 q
q257 2470.0 1.0 q
q258 2500.0 1.0 q
q259 2440.0 1.0 q
q260 2510.0 1.0 q
q261 2650.0 1.0 q
q262 2790.0 1.0 q
q263 3050.0 1.0 q
q264 2850.0 1.0 q
q265 2710.0 1.0 q
q266 2960.0 1.0 q
q267 3480.0 1.0 q
q268 3440.0 1.0 q
q269 3720.0 1.0 q
q270 3930.0 1.0 q
q271 4050.0 1.0 q
q272 4260.0 1.0 q
q273 4620.0 1.0 q
q275 5150.0 1.0 q
q276 5460.0 1.0 q
q277 4870.0 1.0 q
q278 4620.0 1.0 q
q279 4650.0 1.0 q
q280 5180.0 1.0 q
q281 5570.0 1.0 q
q282 5880.0 1.0 q
q283 5610.0 1.0 q
q284 5680.0 1.0 q
q285 5620.0 1.0 q
q286 5500.0 1.0 q
q287 5280.0 1.0 q
q288 5580.0 1.0 q
q289 5760.0 1.0 q
q290 5780.0 1.0 q
q291 5940.0 1.0 q
q292 6020.0 1.0 q
q294 5900.0 1.0 q
q295 5520.0 1.0 q
q296 5750.0 1.0 q
q297 5720.0 1.0 q
q298 5760.0 1.0 q
q299 5490.0 1.0 q
q300 4990.0 1.0 q
q301 4730.0 1.0 q
q302 4840.0 1.0 q
q303 5370.0 1.0 q
q304 5460.0 1.0 q
q305 5400.0 1.0 q
q306 5560.0 1.0 q
q307 5280.0 1.0 q
q308 5000.0 1.0 q
q309 4820.0 1.0 q
q310 4480.0 1.0 q
q311 4530.0 1.0 q
q312 4440.0 1.0 q
q313 4690.0 1.0 q
q314 4340.0 1.0 q
q315 4250.0 1.0 q
q316 4070.0000000000005 1.0 q
q317 4230.0 1.0 q
q329 5520.0 1.0 q
q330 5560.0 1.0 q
q331 5780.0 1.0 q
q332 6210.0 1.0 q
q333 6120.0 1.0 q
q334 6120.0 1.0 q
q337 5860.0 1.0 q
q338 5690.0 1.0 q
q339 5580.0 1.0 q
q340 5510.0 1.0 q
q341 5200.0 1.0 q
q342 5240.0 1.0 q
q343 5050.0 1.0 q
q344 5090.0 1.0 q
q345 4900.0 1.0 q
q346 4780.0 1.0 q
q347 4740.0 1.0 q
q348 4780.0 1.0 q
q349 4280.0 1.0 q
q350 4080.0 1.0 q
q351 4120.0 1.0 q
q352 3780.0 1.0 q
q353 3830.0 1.0 q
q354 3930.0 1.0 q
q355 3880.0 1.0 q
q356 3720.0 1.0 q
q357 3440.0 1.0 q
q358 3160.0 1.0 q
q359 3110.0 1.0 q
q360 2860.0 1.0 q
q361 2770.0 1.0 q
q362 2820.0 1.0 q
q363 2620.0 1.0 q
q364 2560.0 1.0 q
q366 2520.0 1.0 q
q367 2630.0 1.0 q
q369 3250.0 1.0 q
q370 2980.0 1.0 q
q371 3310.0 1.0 q
q372 3190.0 1.0 q
q373 3260.0 1.0 q
q374 3230.0 1.0 q
q375 3070.0 1.0 q
q376 3010.0 1.0 q
q377 2880.0 1.0 q
q378 2900.0 1.0 q
q379 2920.0 1.0 q
q380 3010.0 1.0 q
q381 3040.0 1.0 q
q382 2740.0 1.0 q
q383 2450.0 1.0 q
q384 2470.0 1.0 q
q385 2380.0 1.0 q
q386 2360.0 1.0 q
q387 2250.0 1.0 q
q388 2160.0 1.0 q
q389 2060.0 1.0 q
q390 1830.0 1.0 q
q391 1730.0 1.0 q
q392 1670.0 1.0 q
q393 1630.0 1.0 q
q394 1530.0 1.0 q
q395 1450.0 1.0 q
q396 1410.0 1.0 q
q397 1340.0 1.0 q
q398 1240.0 1.0 q
q399 1280.0 1.0 q
q400 1360.0 1.0 q
q401 1360.0 1.0 q
q402 1280.0 1.0 q
q403 1230.0 1.0 q
q404 1300.0 1.0 q
q405 1370.0 1.0 q
q406 1360.0 1.0 q
q407 1400.0 1.0 q
q408 1310.0 1.0 q
q409 1200.0 1.0 q
q410 1290.0 1.0 q
q411 1320.0 1.0 q
q412 1370.0 1.0 q
q413 1430.0 1.0 q
q415 1510.0 1.0 q
q416 1400.0 1.0 q
q417 1430.0 1.0 q
q418 1440.0 1.0 q
q419 1400.0 1.0 q
q420 1220.0 1.0 q
q421 1250.0 1.0 q
q422 1370.0 1.0 q
q423 1240.0 1.0 q
q424 1250.0 1.0 q
q425 1280.0 1.0 q
q426 1320.0 1.0 q
q427 1340.0 1.0 q
q428 1310.0 1.0 q
q429 1370.0 1.0 q
q430 1350.0 1.0 q
q431 1380.0 1.0 q
q432 1340.0 1.0 q
q433 1390.0 1.0 q
q434 1330.0 1.0 q
q435 1270.0 1.0 q
q436 1260.0 1.0 q
q437 1080.0 1.0 q
q438 1080.0 1.0 q
q439 1070.0 1.0 q
q440 1180.0 1.0 q
q441 1170.0 1.0 q
q442 1190.0 1.0 q
q443 1070.0 1.0 q
q444 1200.0 1.0 q
q445 1240.0 1.0 q
q446 1480.0 1.0 q
q448 1450.0 1.0 q
q449 1340.0 1.0 q
q450 1370.0 1.0 q
q451 1330.0 1.0 q
q452 1350.0 1.0 q
q453 1270.0 1.0 q
q454 1200.0 1.0 q
q455 1260.0 1.0 q
q456 1220.0 1.0 q
q457 1170.0 1.0 q
q458 1180.0 1.0 q
q459 1180.0 1.0 q
q460 1180.0 1.0 q
q461 1180.0 1.0 q
q462 1170.0 1.0 q
q463 1200.0 1.0 q
q464 1120.0 1.0 q
q465 1180.0 1.0 q
q466 1280.0 1.0 q
q467 1270.0 1.0 q
q468 1210.0 1.0 q
q469 1310.0 1.0 q
q470 1290.0 1.0 q
q471 1270.0 1.0 q
q472 1290.0 1.0 q
q473 1240.0 1.0 q
q474 1200.0 1.0 q
q475 1290.0 1.0 q
q477 1210.0 1.0 q
q478 1220.0 1.0 q
q479 1220.0 1.0 q
q480 1260.0 1.0 q
q481 1160.0 1.0 q
q482 1090.0 1.0 q
q484 1040.0 1.0 q
q485 1130.0 1.0 q
q486 1070.0 1.0 q
q487 1090.0 1.0 q
q488 1100.0 1.0 q
q489 1070.0 1.0 q
q491 1070.0 1.0 q
q492 1260.0 1.0 q
q493 1320.0 1.0 q
q494 1310.0 1.0 q
q495 1420.0 1.0 q
q496 1320.0 1.0 q
q497 1330.0 1.0 q
q498 1340.0 1.0 q
q499 1340.0 1.0 q
q500 1330.0 1.0 q
q501 1340.0 1.0 q
q502 1350.0 1.0 q
q503 1350.0 1.0 q
q504 1340.0 1.0 q
q505 1310.0 1.0 q
q506 1290.0 1.0 q
q507 1270.0 1.0 q
q508 1260.0 1.0 q
q509 1260.0 1.0 q
q510 1210.0 1.0 q
q511 1140.0 1.0 q
q512 1160.0 1.0 q
q513 1100.0 1.0 q
q514 1160.0 1.0 q
q515 1100.0 1.0 q
q516 1160.0 1.0 q
q517 1140.0 1.0 q
q518 1130.0 1.0 q
q519 1180.0 1.0 q
q520 1170.0 1.0 q
q521 1130.0 1.0 q
q522 1150.0 1.0 q
q523 1080.0 1.0 q
q524 1100.0 1.0 q
q525 1100.0 1.0 q
q526 1130.0 1.0 q
q527 1050.0 1.0 q
q528 1060.0 1.0 q
q529 1010.0 1.0 q
q530 989.0 1.0 q
q531 977.0 1.0 q
q532 957.0 1.0 q
q533 932.0 1.0 q
q534 934.0 1.0 q
q535 936.0 1.0 q
q536 1030.0 1.0 q
q537 1050.0 1.0 q
q538 975.0 1.0 q
q539 1010.0 1.0 q
q540 979.0 1.0 q
q542 914.0 1.0 q
q543 890.0 1.0 q
q544 929.0 1.0 q
q545 946.0 1.0 q
q546 915.0 1.0 q
q547 885.0 1.0 q
q548 887.0 1.0 q
q549 906.0 1.0 q
q550 925.0 1.0 q
q551 940.0 1.0 q
q552 901.0 1.0 q
q553 853.0 1.0 q
q555 876.0 1.0 q
q556 924.0 1.0 q
q557 970.0 1.0 q
q558 941.0 1.0 q
q559 975.0 1.0 q
q560 986.0 1.0 q
q561 900.0 1.0 q
q562 930.0 1.0 q
q563 906.0 1.0 q
q564 965.0 1.0 q
q565 1050.0 1.0 q
q567 1750.0 1.0 q
q568 1500.0 1.0 q
q569 1560.0 1.0 q
q570 1540.0 1.0 q
q571 1500.0 1.0 q
q572 1520.0 1.0 q
q573 1430.0 1.0 q
q574 1340.0 1.0 q
q575 1350.0 1.0 q
q576 1330.0 1.0 q
q577 1280.0 1.0 q
q578 1300.0 1.0 q
q579 1310.0 1.0 q
q580 1430.0 1.0 q
q581 1440.0 1.0 q
q582 1510.0 1.0 q
q583 1480.0 1.0 q
q584 1500.0 1.0 q
q585 1390.0 1.0 q
q586 1340.0 1.0 q
q587 1350.0 1.0 q
q588 1380.0 1.0 q
q589 1370.0 1.0 q
q590 1410.0 1.0 q
q591 1380.0 1.0 q
q592 1270.0 1.0 q
q593 1260.0 1.0 q
q594 1310.0 1.0 q
q595 1360.0 1.0 q
q596 1350.0 1.0 q
q597 1340.0 1.0 q
q598 1250.0 1.0 q
q600 1230.0 1.0 q
q601 1430.0 1.0 q
q602 1490.0 1.0 q
q603 1440.0 1.0 q
q604 1500.0 1.0 q
q605 1540.0 1.0 q
q606 1680.0 1.0 q
q607 1710.0 1.0 q
q608 1790.0 1.0 q
q610 1950.0 1.0 q
q611 1800.0 1.0 q
q612 1700.0 1.0 q
q613 1750.0 1.0 q
q614 1860.0 1.0 q
q615 1810.0 1.0 q
q616 1750.0 1.0 q
q617 1730.0 1.0 q
q618 1650.0 1.0 q
q619 1660.0 1.0 q
q620 1650.0 1.0 q
q621 1740.0 1.0 q
q622 1680.0 1.0 q
q624 1640.0 1.0 q
q625 1790.0 1.0 q
q626 1940.0 1.0 q
q627 1950.0 1.0 q
q628 1850.0 1.0 q
q629 1870.0 1.0 q
q630 1860.0 1.0 q
q631 1820.0 1.0 q
q632 1860.0 1.0 q
q633 1980.0 1.0 q
q634 1820.0 1.0 q
q635 1860.0 1.0 q
q636 1780.0 1.0 q
q637 1750.0 1.0 q
q638 1840.0 1.0 q
q639 2009.9999999999998 1.0 q
q640 1950.0 1.0 q
q642 2009.9999999999998 1.0 q
q643 2130.0 1.0 q
q644 2140.0 1.0 q
q645 2420.0 1.0 q
q646 2320.0 1.0 q
q647 2400.0 1.0 q
q648 2630.0 1.0 q
q649 3170.0 1.0 q
q650 3630.0 1.0 q
q651 4019.9999999999995 1.0 q
q652 3990.0 1.0 q
q653 4310.0 1.0 q
q654 4410.0 1.0 q
q655 4560.0 1.0 q
q656 4950.0 1.0 q
q657 5080.0 1.0 q
q658 5210.0 1.0 q
q659 4910.0 1.0 q
q660 4770.0 1.0 q
q661 4910.0 1.0 q
q662 5180.0 1.0 q
q663 4660.0 1.0 q
q664 4890.0 1.0 q
q665 4810.0 1.0 q
q667 4950.0 1.0 q
q668 4330.0 1.0 q
q669 3820.0 1.0 q
q670 3990.0 1.0 q
q671 4220.0 1.0 q
q672 4790.0 1.0 q
q673 5280.0 1.0 q
q675 5170.0 1.0 q
q676 4670.0 1.0 q
q677 4620.0 1.0 q
q678 4350.0 1.0 q
q679 3960.0 1.0 q
q680 3890.0 1.0 q
q681 4100.0 1.0 q
q682 3870.0 1.0 q
q683 4019.9999999999995 1.0 q
q684 4040.0 1.0 q
q685 3960.0 1.0 q
q686 3990.0 1.0 q
q687 4130.0 1.0 q
q688 4230.0 1.0 q
q689 4070.0000000000005 1.0 q
q690 3950.0 1.0 q
q691 4019.9999999999995 1.0 q
q692 4100.0 1.0 q
q693 4059.9999999999995 1.0 q
q694 3900.0 1.0 q
q695 3830.0 1.0 q
q696 3820.0 1.0 q
q697 3650.0 1.0 q
q698 3610.0 1.0 q
q699 3530.0 1.0 q
q701 3440.0 1.0 q
q702 3460.0 1.0 q
q703 3460.0 1.0 q
q704 3150.0 1.0 q
q705 2840.0 1.0 q
q706 2670.0 1.0 q
q707 2890.0 1.0 q
q708 2920.0 1.0 q
q709 2710.0 1.0 q
q710 2690.0 1.0 q
q711 2540.0 1.0 q
q712 2540.0 1.0 q
q713 2660.0 1.0 q
q714 2600.0 1.0 q
q715 2400.0 1.0 q
q716 2340.0 1.0 q
q717 2250.0 1.0 q
q718 2250.0 1.0 q
q719 2330.0 1.0 q
q720 2220.0 1.0 q
q721 2290.0 1.0 q
q722 2350.0 1.0 q
q723 2170.0 1.0 q
q724 2180.0 1.0 q
q725 2110.0 1.0 q
q726 2280.0 1.0 q
q727 2120.0 1.0 q
q728 2160.0 1.0 q
q729 2120.0 1.0 q
q730 2090.0 1.0 q
q733 2150.0 1.0 q
q734 2090.0 1.0 q
q735 2120.0 1.0 q
q736 2110.0 1.0 q
q737 1830.0 1.0 q
q738 1710.0 1.0 q
q739 1760.0 1.0 q
q740 1740.0 1.0 q
q741 1810.0 1.0 q
q742 1800.0 1.0 q
q743 1670.0 1.0 q
q744 1810.0 1.0 q
q745 1850.0 1.0 q
q746 1970.0 1.0 q
q747 1790.0 1.0 q
q748 1730.0 1.0 q
q749 1690.0 1.0 q
q750 1670.0 1.0 q
q751 1660.0 1.0 q
q752 1600.0 1.0 q
q753 1680.0 1.0 q
q754 1740.0 1.0 q
q755 1640.0 1.0 q
q756 1530.0 1.0 q
q757 1500.0 1.0 q
q758 1510.0 1.0 q
q759 1440.0 1.0 q
q760 1440.0 1.0 q
q761 1470.0 1.0 q
q762 1530.0 1.0 q
q763 1610.0 1.0 q
q764 1550.0 1.0 q
q765 1370.0 1.0 q
q766 1510.0 1.0 q
q767 1500.0 1.0 q
q768 1530.0 1.0 q
q769 1560.0 1.0 q
q770 1580.0 1.0 q
q771 1680.0 1.0 q
q772 1700.0 1.0 q
q773 1590.0 1.0 q
q774 1420.0 1.0 q
q775 1320.0 1.0 q
q776 1440.0 1.0 q
q777 1370.0 1.0 q
q778 1430.0 1.0 q
q779 1270.0 1.0 q
q780 1280.0 1.0 q
q781 1280.0 1.0 q
q782 1260.0 1.0 q
q783 1270.0 1.0 q
q784 1120.0 1.0 q
q785 1140.0 1.0 q
q786 1090.0 1.0 q
q787 1120.0 1.0 q
q788 1030.0 1.0 q
q789 953.0 1.0 q
q790 924.0 1.0 q
q792 1020.0 1.0 q
q793 1050.0 1.0 q
q794 1020.0 1.0 q
q795 992.0 1.0 q
q796 991.0 1.0 q
q797 937.0 1.0 q
q798 1070.0 1.0 q
q799 1050.0 1.0 q
q800 1110.0 1.0 q
q801 1070.0 1.0 q
q802 1030.0 1.0 q
q803 1080.0 1.0 q
q804 1120.0 1.0 q
q805 1180.0 1.0 q
q806 1030.0 1.0 q
q807 1170.0 1.0 q
q808 1250.0 1.0 q
q809 1230.0 1.0 q
q810 1100.0 1.0 q
q811 1200.0 1.0 q
q812 1060.0 1.0 q
q813 1090.0 1.0 q
q814 1140.0 1.0 q
q815 1150.0 1.0 q
q816 1170.0 1.0 q
q817 1030.0 1.0 q
q818 1050.0 1.0 q
q819 1190.0 1.0 q
q820 1180.0 1.0 q
q821 1020.0 1.0 q
q822 1070.0 1.0 q
q823 1060.0 1.0 q
q824 1000.0 1.0 q
q825 1140.0 1.0 q
q826 1010.0 1.0 q
q827 994.0 1.0 q
q828 1120.0 1.0 q
q829 1140.0 1.0 q
q830 1120.0 1.0 q
q831 1710.0 1.0 q
q833 1680.0 1.0 q
q834 1650.0 1.0 q
q835 1670.0 1.0 q
q836 1650.0 1.0 q
q837 1630.0 1.0 q
q838 1440.0 1.0 q
q839 1370.0 1.0 q
q840 1290.0 1.0 q
q841 1320.0 1.0 q
q842 1380.0 1.0 q
q843 1360.0 1.0 q
q844 1280.0 1.0 q
q845 1200.0 1.0 q
q846 1090.0 1.0 q
q847 957.0 1.0 q
q849 940.0 1.0 q
q850 1010.0 1.0 q
q851 1050.0 1.0 q
q852 1050.0 1.0 q
q853 1030.0 1.0 q
q854 1060.0 1.0 q
q855 1050.0 1.0 q
q856 1060.0 1.0 q
q857 1010.0 1.0 q
q858 934.0 1.0 q
q860 973.0 1.0 q
q861 1090.0 1.0 q
q862 1100.0 1.0 q
q863 1130.0 1.0 q
q864 1220.0 1.0 q
q865 2029.9999999999998 1.0 q
q866 2040.0 1.0 q
q867 2150.0 1.0 q
q868 1980.0 1.0 q
q869 1960.0 1.0 q
q870 1940.0 1.0 q
q871 1860.0 1.0 q
q872 1930.0 1.0 q
q873 1950.0 1.0 q
q874 1900.0 1.0 q
q875 1990.0 1.0 q
q876 2830.0 1.0 q
q935 2770.0 1.0 q
q937 2820.0 1.0 q
q938 2810.0 1.0 q
q939 2920.0 1.0 q
q940 3140.0 1.0 q
q941 3370.0 1.0 q
q942 3140.0 1.0 q
q943 3060.0 1.0 q
q944 2930.0 1.0 q
q945 2980.0 1.0 q
q946 2850.0 1.0 q
q947 2880.0 1.0 q
q948 2810.0 1.0 q
q950 3000.0 1.0 q
q951 2870.0 1.0 q
q952 2890.0 1.0 q
q953 3140.0 1.0 q
q954 3500.0 1.0 q
q955 3770.0 1.0 q
q956 3900.0 1.0 q
q957 4030.0000000000005 1.0 q
q958 4130.0 1.0 q
q959 4130.0 1.0 q
q960 3930.0 1.0 q
q961 4210.0 1.0 q
q962 4290.0 1.0 q
q963 4040.0 1.0 q
q964 3770.0 1.0 q
q965 3710.0 1.0 q
q966 3670.0 1.0 q
q967 3480.0 1.0 q
q968 3550.0 1.0 q
q969 3680.0 1.0 q
q970 4080.0 1.0 q
q971 4290.0 1.0 q
q972 4180.0 1.0 q
q973 4180.0 1.0 q
q974 4240.0 1.0 q
q975 4240.0 1.0 q
q976 4280.0 1.0 q
q977 4190.0 1.0 q
q978 4390.0 1.0 q
q979 4460.0 1.0 q
q980 4410.0 1.0 q
q981 4250.0 1.0 q
q982 4120.0 1.0 q
q983 4030.0000000000005 1.0 q
q984 3920.0 1.0 q
q985 4030.0000000000005 1.0 q
q986 3850.0 1.0 q
q987 3870.0 1.0 q
q988 4090.0 1.0 q
q989 3910.0 1.0 q
q990 4010.0 1.0 q
q991 3870.0 1.0 q
q992 3860.0 1.0 q
q993 3770.0 1.0 q
q995 3580.0 1.0 q
q996 3860.0 1.0 q
q997 3650.0 1.0 q
q998 4150.0 1.0 q
q999 4590.0 1.0 q
q1000 4620.0 1.0 q
q1001 4810.0 1.0 q
q1002 5350.0 1.0 q
q1004 5300.0 1.0 q
q1005 5950.0 1.0 q
q1006 6130.0 1.0 q
q1007 5790.0 1.0 q
q1008 5900.0 1.0 q
q1010 5950.0 1.0 q
q1011 6010.0 1.0 q
q1012 5910.0 1.0 q
q1013 5800.0 1.0 q
q1014 6110.0 1.0 q
q1015 6320.0 1.0 q
q1016 6590.0 1.0 q
q1017 7530.0 1.0 q
q1018 8300.0 1.0 q
q1019 9360.0 1.0 q
q1020 9810.0 1.0 q
q1021 10500.0 1.0 q
q1023 10700.0 1.0 q
q1024 9770.0 1.0 q
q1025 9220.0 1.0 q
q1026 8280.0 1.0 q
q1027 7810.0 1.0 q
q1028 7300.0 1.0 q
q1029 7350.0 1.0 q
q1030 7200.0 1.0 q
q1031 7580.0 1.0 q
q1032 7960.0 1.0 q
q1033 7910.0 1.0 q
q1034 7690.0 1.0 q
q1035 8310.0 1.0 q
q1036 8870.0 1.0 q
q1037 9550.0 1.0 q
q1038 9060.0 1.0 q
q1039 9260.0 1.0 q
q1040 8920.0 1.0 q
q1041 9380.0 1.0 q
q1042 9160.0 1.0 q
q1043 8830.0 1.0 q
q1044 8750.0 1.0 q
q1045 8370.0 1.0 q
q1067 12900.0 1.0 q
q1068 12700.0 1.0 q
q1069 12700.0 1.0 q
q1070 12300.0 1.0 q
q1071 11900.0 1.0 q
q1072 12000.0 1.0 q
q1073 11700.0 1.0 q
q1074 11300.0 1.0 q
q1075 11600.0 1.0 q
q1076 11500.0 1.0 q
q1077 11400.0 1.0 q
q1078 11100.0 1.0 q
q1079 10600.0 1.0 q
q1080 10300.0 1.0 q
q1081 10300.0 1.0 q
q1082 10000.0 1.0 q
q1083 9730.0 1.0 q
q1084 9630.0 1.0 q
q1085 9380.0 1.0 q
q1086 8900.0 1.0 q
q1087 9030.0 1.0 q
q1088 8530.0 1.0 q
q1089 8010.0 1.0 q
q1090 7590.0 1.0 q
q1091 7070.0 1.0 q
q1092 6730.0 1.0 q
q1093 6540.0 1.0 q
q1094 6310.0 1.0 q
q1095 6190.0 1.0 q
q1098 5610.0 1.0 q
q1099 5300.0 1.0 q
q1100 4980.0 1.0 q
q1101 5040.0 1.0 q
q1102 4900.0 1.0 q
q1103 4640.0 1.0 q
q1104 4600.0 1.0 q
q1105 4230.0 1.0 q
q1106 4290.0 1.0 q
q1107 4270.0 1.0 q
q1108 4270.0 1.0 q
q1109 4180.0 1.0 q
q1110 4260.0 1.0 q
q1111 4310.0 1.0 q
q1112 4230.0 1.0 q
q1113 3980.0 1.0 q
q1114 3770.0 1.0 q
q1115 3600.0 1.0 q
q1116 3450.0 1.0 q
q1117 3470.0 1.0 q
q1118 3520.0 1.0 q
q1119 3410.0 1.0 q
q1120 3440.0 1.0 q
q1121 3400.0 1.0 q
q1122 3290.0 1.0 q
q1123 3290.0 1.0 q
q1124 3380.0 1.0 q
q1125 3330.0 1.0 q
q1126 3330.0 1.0 q
q1127 3250.0 1.0 q
q1128 3200.0 1.0 q
q1129 3170.0 1.0 q
q1130 3190.0 1.0 q
q1131 3260.0 1.0 q
q1133 3140.0 1.0 q
q1134 3010.0 1.0 q
q1135 2980.0 1.0 q
q1136 3140.0 1.0 q
q1137 3180.0 1.0 q
q1138 3160.0 1.0 q
q1139 3130.0 1.0 q
q1140 3070.0 1.0 q
q1141 3180.0 1.0 q
q1142 3250.0 1.0 q
q1143 3220.0 1.0 q
q1144 3140.0 1.0 q
q1145 2940.0 1.0 q
q1146 2740.0 1.0 q
q1147 2770.0 1.0 q
q1148 2060.0 1.0 q
q1149 1930.0 1.0 q
q1151 1410.0 1.0 q
q1152 1960.0 1.0 q
q1153 1850.0 1.0 q
q1154 1860.0 1.0 q
q1155 1850.0 1.0 q
q1156 1830.0 1.0 q
q1157 1820.0 1.0 q
q1158 1740.0 1.0 q
q1159 1830.0 1.0 q
q1160 1850.0 1.0 q
q1161 1920.0 1.0 q
q1162 1880.0 1.0 q
q1163 1850.0 1.0 q
q1164 1820.0 1.0 q
q1165 1740.0 1.0 q
q1166 1760.0 1.0 q
q1167 1790.0 1.0 q
q1168 1810.0 1.0 q
q1169 1880.0 1.0 q
q1170 1980.0 1.0 q
q1171 1920.0 1.0 q
q1172 1800.0 1.0 q
q1173 1820.0 1.0 q
q1174 1740.0 1.0 q
q1175 1640.0 1.0 q
q1176 1620.0 1.0 q
q1177 1720.0 1.0 q
q1178 1640.0 1.0 q
q1179 1610.0 1.0 q
q1180 1530.0 1.0 q
q1181 1560.0 1.0 q
q1182 1520.0 1.0 q
q1183 1460.0 1.0 q
q1185 1500.0 1.0 q
q1186 1480.0 1.0 q
q1187 1550.0 1.0 q
q1188 1490.0 1.0 q
q1189 1430.0 1.0 q
q1190 1450.0 1.0 q
q1191 1390.0 1.0 q
q1192 1440.0 1.0 q
q1193 1480.0 1.0 q
q1194 1470.0 1.0 q
q1195 1440.0 1.0 q
q1196 1390.0 1.0 q
q1197 1400.0 1.0 q
q1198 1420.0 1.0 q
q1199 1410.0 1.0 q
q1200 1460.0 1.0 q
q1201 1420.0 1.0 q
q1202 1550.0 1.0 q
q1203 1620.0 1.0 q
q1204 1550.0 1.0 q
q1205 1480.0 1.0 q
q1206 1480.0 1.0 q
q1207 1430.0 1.0 q
q1208 1480.0 1.0 q
q1209 1440.0 1.0 q
q1210 1440.0 1.0 q
q1211 1380.0 1.0 q
q1212 1320.0 1.0 q
q1214 1350.0 1.0 q
q1215 1370.0 1.0 q
q1216 1310.0 1.0 q
q1217 1320.0 1.0 q
q1218 1350.0 1.0 q
q1219 1420.0 1.0 q
q1220 1520.0 1.0 q
q1221 1550.0 1.0 q
q1222 1540.0 1.0 q
q1223 1410.0 1.0 q
q1224 1530.0 1.0 q
q1225 1500.0 1.0 q
q1226 1550.0 1.0 q
q1227 1540.0 1.0 q
q1228 1570.0 1.0 q
q1229 1510.0 1.0 q
q1230 1530.0 1.0 q
q1231 1530.0 1.0 q
q1232 1450.0 1.0 q
q1233 1500.0 1.0 q
q1234 1380.0 1.0 q
q1236 1390.0 1.0 q
q1237 1690.0 1.0 q
q1238 1890.0 1.0 q
q1239 1900.0 1.0 q
q1240 1980.0 1.0 q
q1241 2040.0 1.0 q
q1243 2050.0 1.0 q
q1244 1940.0 1.0 q
q1245 1910.0 1.0 q
q1246 1850.0 1.0 q
q1247 1870.0 1.0 q
q1248 1860.0 1.0 q
q1249 1930.0 1.0 q
q1251 1840.0 1.0 q
q1252 1820.0 1.0 q
q1253 1870.0 1.0 q
q1254 1880.0 1.0 q
q1255 1860.0 1.0 q
q1256 1900.0 1.0 q
q1257 1900.0 1.0 q
q1258 1850.0 1.0 q
q1259 1840.0 1.0 q
q1260 1840.0 1.0 q
q1261 1820.0 1.0 q
q1262 1840.0 1.0 q
q1263 1880.0 1.0 q
q1264 1880.0 1.0 q
q1265 1870.0 1.0 q
q1266 1810.0 1.0 q
q1267 1860.0 1.0 q
q1268 1850.0 1.0 q
q1269 1860.0 1.0 q
q1270 1860.0 1.0 q
q1271 1800.0 1.0 q
q1272 1860.0 1.0 q
q1273 1840.0 1.0 q
q1274 1840.0 1.0 q
q1275 1790.0 1.0 q
q1276 1830.0 1.0 q
q1277 1770.0 1.0 q
q1278 1750.0 1.0 q
q1279 1800.0 1.0 q
q1280 1890.0 1.0 q
q1281 1810.0 1.0 q
q1282 1860.0 1.0 q
q1283 1940.0 1.0 q
q1284 1950.0 1.0 q
q1285 2130.0 1.0 q
q1287 2220.0 1.0 q
q1288 2220.0 1.0 q
q1289 2240.0 1.0 q
q1290 2230.0 1.0 q
q1291 2160.0 1.0 q
q1292 1950.0 1.0 q
q1293 1960.0 1.0 q
q1294 1910.0 1.0 q
q1295 1840.0 1.0 q
q1296 1780.0 1.0 q
q1297 1820.0 1.0 q
q1298 1850.0 1.0 q
q1299 1980.0 1.0 q
q1300 1920.0 1.0 q
q1301 1890.0 1.0 q
q1302 1850.0 1.0 q
q1303 1780.0 1.0 q
q1304 1850.0 1.0 q
q1305 1790.0 1.0 q
q1306 1730.0 1.0 q
q1307 1710.0 1.0 q
q1308 1730.0 1.0 q
q1309 1730.0 1.0 q
q1310 1700.0 1.0 q
q1311 1750.0 1.0 q
q1312 1790.0 1.0 q
q1313 1650.0 1.0 q
q1314 1620.0 1.0 q
q1315 1570.0 1.0 q
q1316 1560.0 1.0 q
q1317 1500.0 1.0 q
q1318 1590.0 1.0 q
q1319 1660.0 1.0 q
q1320 1610.0 1.0 q
q1321 1560.0 1.0 q
q1322 1530.0 1.0 q
q1323 1530.0 1.0 q
q1324 1440.0 1.0 q
q1325 1440.0 1.0 q
q1326 1450.0 1.0 q
q1327 1560.0 1.0 q
q1328 1500.0 1.0 q
q1329 1610.0 1.0 q
q1330 1500.0 1.0 q
q1331 1490.0 1.0 q
q1332 1540.0 1.0 q
q1333 1500.0 1.0 q
q1334 1400.0 1.0 q
q1335 1370.0 1.0 q
q1336 1090.0 1.0 q
q1337 1090.0 1.0 q
q1339 1110.0 1.0 q
q1340 1240.0 1.0 q
q1341 1330.0 1.0 q
q1342 1310.0 1.0 q
q1343 1300.0 1.0 q
q1344 1280.0 1.0 q
q1345 1230.0 1.0 q
q1346 1250.0 1.0 q
q1347 1210.0 1.0 q
q1348 1210.0 1.0 q
q1349 1160.0 1.0 q
q1351 1100.0 1.0 q
q1352 1220.0 1.0 q
q1353 1310.0 1.0 q
q1354 1190.0 1.0 q
q1355 1150.0 1.0 q
q1356 1250.0 1.0 q
q1357 1290.0 1.0 q
q1358 1230.0 1.0 q
q1359 1280.0 1.0 q
q1360 1240.0 1.0 q
q1361 1260.0 1.0 q
q1362 1170.0 1.0 q
q1363 1150.0 1.0 q
q1364 1280.0 1.0 q
q1365 1290.0 1.0 q
q1366 1330.0 1.0 q
q1367 1220.0 1.0 q
q1368 1420.0 1.0 q
q1369 1550.0 1.0 q
q1370 1690.0 1.0 q
q1371 1600.0 1.0 q
q1372 1520.0 1.0 q
q1373 1440.0 1.0 q
q1374 1520.0 1.0 q
q1375 1480.0 1.0 q
q1376 1470.0 1.0 q
q1377 1460.0 1.0 q
q1378 1520.0 1.0 q
q1379 1610.0 1.0 q
q1380 1550.0 1.0 q
q1381 1650.0 1.0 q
q1382 1660.0 1.0 q
q1383 1750.0 1.0 q
q1384 1980.0 1.0 q
q1385 1970.0 1.0 q
q1386 1990.0 1.0 q
q1387 1930.0 1.0 q
q1388 1920.0 1.0 q
q1389 1920.0 1.0 q
q1390 1850.0 1.0 q
q1391 1850.0 1.0 q
q1392 2020.0 1.0 q
q1393 1910.0 1.0 q
q1394 1790.0 1.0 q
q1395 1910.0 1.0 q
q1396 1960.0 1.0 q
q1397 1880.0 1.0 q
q1398 2050.0 1.0 q
q1399 2090.0 1.0 q
q1401 2410.0 1.0 q
q1402 2520.0 1.0 q
q1404 2360.0 1.0 q
q1405 2300.0 1.0 q
q1406 2280.0 1.0 q
q1407 2180.0 1.0 q
q1408 2230.0 1.0 q
q1409 2150.0 1.0 q
q1410 2080.0 1.0 q
q1411 2370.0 1.0 q
q1412 2300.0 1.0 q
q1413 1980.0 1.0 q
q1414 2060.0 1.0 q
q1415 2120.0 1.0 q
q1416 1980.0 1.0 q
q1417 1950.0 1.0 q
q1418 1800.0 1.0 q
q1419 1800.0 1.0 q
q1420 1730.0 1.0 q
q1421 1770.0 1.0 q
q1422 1690.0 1.0 q
q1423 1740.0 1.0 q
q1424 1760.0 1.0 q
q1425 1730.0 1.0 q
q1426 1850.0 1.0 q
q1427 1800.0 1.0 q
q1428 1680.0 1.0 q
q1429 1760.0 1.0 q
q1431 1660.0 1.0 q
q1432 1690.0 1.0 q
q1434 1680.0 1.0 q
q1435 1520.0 1.0 q
q1436 1560.0 1.0 q
q1437 1680.0 1.0 q
q1438 1660.0 1.0 q
q1439 1630.0 1.0 q
q1440 1450.0 1.0 q
q1441 1300.0 1.0 q
q1442 1330.0 1.0 q
q1443 1320.0 1.0 q
q1444 1340.0 1.0 q
q1445 1450.0 1.0 q
q1446 1350.0 1.0 q
q1447 1280.0 1.0 q
q1448 1120.0 1.0 q
q1449 1100.0 1.0 q
q1450 1130.0 1.0 q
q1451 1010.0 1.0 q
q1452 997.0 1.0 q
q1453 1110.0 1.0 q
q1454 1110.0 1.0 q
q1455 1090.0 1.0 q
q1456 989.0 1.0 q
q1457 1090.0 1.0 q
q1458 1090.0 1.0 q
q1459 1060.0 1.0 q
q1461 1010.0 1.0 q
q1462 1040.0 1.0 q
q1463 1050.0 1.0 q
q1464 1000.0 1.0 q
q1465 1100.0 1.0 q
q1466 1140.0 1.0 q
q1467 1030.0 1.0 q
q1468 1010.0 1.0 q
q1469 1100.0 1.0 q
q1470 1130.0 1.0 q
q1471 1100.0 1.0 q
q1472 1150.0 1.0 q
q1473 1180.0 1.0 q
q1474 1040.0 1.0 q
q1475 960.0 1.0 q
q1476 794.0 1.0 q
q1477 817.0 1.0 q
q1478 903.0 1.0 q
q1479 831.0 1.0 q
q1480 841.0 1.0 q
q1481 880.0 1.0 q
q1482 823.0 1.0 q
q1483 838.0 1.0 q
q1484 906.0 1.0 q
q1485 959.0 1.0 q
q1486 955.0 1.0 q
q1487 917.0 1.0 q
q1488 951.0 1.0 q
q1489 968.0 1.0 q
q1490 890.0 1.0 q
q1491 930.0 1.0 q
q1492 1070.0 1.0 q
q1493 1120.0 1.0 q
q1494 1110.0 1.0 q
q1495 893.0 1.0 q
q1496 899.0 1.0 q
q1497 891.0 1.0 q
q1498 979.0 1.0 q
q1499 918.0 1.0 q
q1500 895.0 1.0 q
q1501 878.0 1.0 q
q1502 910.0 1.0 q
q1503 874.0 1.0 q
q1504 815.0 1.0 q
q1505 847.0 1.0 q
q1506 937.0 1.0 q
q1507 1030.0 1.0 q
q1508 1230.0 1.0 q
q1509 1210.0 1.0 q
q1510 1230.0 1.0 q
q1511 1040.0 1.0 q
q1512 818.0 1.0 q
q1513 817.0 1.0 q
q1514 1150.0 1.0 q
q1515 1400.0 1.0 q
q1516 1450.0 1.0 q
q1517 1330.0 1.0 q
q1518 978.0 1.0 q
q1519 803.0 1.0 q
q1520 885.0 1.0 q
q1521 1180.0 1.0 q
q1522 1410.0 1.0 q
q1523 1450.0 1.0 q
q1524 1280.0 1.0 q
q1525 990.0 1.0 q
q1526 800.0 1.0 q
q1527 869.0 1.0 q
q1528 1120.0 1.0 q
q1529 1320.0 1.0 q
q1530 1310.0 1.0 q
q1531 1320.0 1.0 q
q1532 1030.0 1.0 q
q1533 871.0 1.0 q
q1534 904.0 1.0 q
q1535 1140.0 1.0 q
q1536 1300.0 1.0 q
q1537 1260.0 1.0 q
q1538 1310.0 1.0 q
q1539 1020.0 1.0 q
q1540 833.0 1.0 q
q1541 950.0 1.0 q
q1542 1140.0 1.0 q
q1543 1340.0 1.0 q
q1544 426.0 1.0 q
q1546 428.0 1.0 q
q1547 1220.0 1.0 q
q1548 1070.0 1.0 q
q1549 1590.0 1.0 q
q1550 1750.0 1.0 q
q1551 1770.0 1.0 q
q1553 1740.0 1.0 q
q1554 1220.0 1.0 q
q1555 1440.0 1.0 q
q1556 1620.0 1.0 q
q1557 1840.0 1.0 q
q1558 1760.0 1.0 q
q1559 1720.0 1.0 q
q1560 1370.0 1.0 q
q1561 1130.0 1.0 q
q1562 1230.0 1.0 q
q1563 1500.0 1.0 q
q1564 1470.0 1.0 q
q1565 1760.0 1.0 q
q1566 1790.0 1.0 q
q1567 1650.0 1.0 q
q1568 1430.0 1.0 q
q1569 1400.0 1.0 q
q1570 1910.0 1.0 q
q1571 1910.0 1.0 q
q1573 624.0 1.0 q
q1574 822.0 1.0 q
q1575 1010.0 1.0 q
q1576 1030.0 1.0 q
q1577 1050.0 1.0 q
q1578 1010.0 1.0 q
q1579 969.0 1.0 q
q1580 990.0 1.0 q
q1581 961.0 1.0 q
q1582 931.0 1.0 q