pcf
* control data
restart estimation
44    9631      20       0       2
2    2 single point   1   0   0
10.0  -3  0.3  0.03  10  lamforgive derforgive
10.0  10.0  0.001
0.1  noaui
50  0.001  6  6  0.001  6
1  1  1  PARSAVEITN
* singular value decomposition
1
46 5E-06
1
* parameter groups
ddsd         relative 0.025  0.0  switch  2.0 parabolic 1.0e-4 0.5 smaller
ddsw         relative 0.025  0.0  switch  2.0 parabolic 1.0e-4 0.5 smaller
ddgd         relative 0.025  0.0  switch  2.0 parabolic 1.0e-4 0.5 smaller
ddgw         relative 0.025  0.0  switch  2.0 parabolic 1.0e-4 0.5 smaller
rcsd         relative 0.025  0.0  switch  2.0 parabolic 1.0e-4 0.5 smaller
rcsw         relative 0.025  0.0  switch  2.0 parabolic 1.0e-4 0.5 smaller
rcrd         relative 0.025  0.0  switch  2.0 parabolic 1.0e-4 0.5 smaller
rcrw         relative 0.025  0.0  switch  2.0 parabolic 1.0e-4 0.5 smaller
rcgd         relative 0.025  0.0  switch  2.0 parabolic 1.0e-4 0.5 smaller
rcgw         relative 0.025  0.0  switch  2.0 parabolic 1.0e-4 0.5 smaller
tl           relative 0.025  0.0  switch  2.0 parabolic 1.0e-4 0.5 smaller
xw           relative 0.025  0.0  switch  2.0 parabolic 1.0e-4 0.5 smaller
yw           relative 0.03  0.0  switch  2.0 parabolic 1.0e-4 0.5 smaller
x           relative 0.025  0.0  switch  2.0 parabolic 1.0e-4 0.5 smaller
y            relative 0.025  0.0  switch  2.0 parabolic 1.0e-4 0.5 smaller
tlr			 relative 0.5  0.0  switch  2.0 parabolic 1.0e-4 0.5 smaller
tls			 relative 0.5  0.0  switch  2.0 parabolic 1.0e-4 0.5 smaller
beta			 relative 0.025  0.0  switch  2.0 parabolic 1.0e-4 0.5 smaller
alpha			 relative 0.025  0.0  switch  2.0 parabolic 1.0e-4 0.5 smaller
tcrit			 relative 0.025  0.0  switch  2.0 parabolic 1.0e-4 0.5 smaller
* parameter data
ddsd	log	factor   0.2871300      1.00e-01	2.1	ddsd	1	0	1
ddsw	log	factor   0.2301400      1.00e-01	2.1	ddsw	1	0	1
ddgd	log	factor    0.9      1.00e-08	2.1	ddgd	1	0	1
ddgw	log	factor   0.1877398      1.00e-08	2.1	ddgw	1	0	1
rcs1d	log	factor    0.9      1.00e-08	2	rcsd	1	0	1
rcs1w	log	factor    0.9      1.00e-08	2	rcsw	1	0	1
rcs2d	log	factor    0.9      1.00e-08	2	rcsd	1	0	1
rcs2w	log	factor    0.9      1.00e-08	2	rcsw	1	0	1
rcs3d	log	factor   1.1237974E-02  1.00e-08	1	rcsd	1	0	1
rcs3w	log	factor   0.7095428      1.00e-08	1	rcsw	1	0	1
rcs4d	log	factor   1.7027849E-03  1.00e-08	1	rcsd	1	0	1
rcs4w	log	factor   1.9900724E-03  1.00e-08	1	rcsw	1	0	1
rcs5d	log	factor   0.9046437      1.00e-08	1	rcsd	1	0	1
rcs5w	log	factor    0.9      1.00e-08	1	rcsw	1	0	1
rcs6d	log	factor   2.2004121E-02  1.00e-08	1	rcsd	1	0	1
rcs6w	log	factor    0.9      1.00e-08	1	rcsw	1	0	1
rcs7d	log	factor   4.9404009E-03  1.00e-08	1	rcsd	1	0	1
rcs7w	log	factor    0.9      1.00e-08	1	rcsw	1	0	1
rcr1d	log	factor   0.9e-02      1.00e-08	1	rcrd	1	0	1
rcr1w	log	factor    0.9      1.00e-08	1	rcrw	1	0	1
rcr2d	log	factor   0.1036747e-02      1.00e-08	1	rcrd	1	0	1
rcr2w	log	factor   1.0352389E-02  1.00e-08	1	rcrw	1	0	1
rcr3d	log	factor   3.9041752E-03  1.00e-08	1	rcrd	1	0	1
rcr3w	log	factor   5.2697620E-03  1.00e-08	1	rcrw	1	0	1
rcr4d	log	factor   1.6609191E-03  1.00e-08	1	rcrd	1	0	1
rcr4w	log	factor   1.3732826E-03  1.00e-08	1	rcrw	1	0	1
rcr5d	log	factor   3.3200859E-03  1.00e-08	1	rcrd	1	0	1
rcr5w	log	factor   5.2041455E-03  1.00e-08	1	rcrw	1	0	1
rcr6d	log	factor   1.2448492E-03  1.00e-08	1	rcrd	1	0	1
rcr6w	log	factor   2.8207164E-03  1.00e-08	1	rcrw	1	0	1
rcr7d	log	factor   1.1699713E-03  1.00e-08	1	rcrd	1	0	1
rcr7w	log	factor   1.2453562E-03  1.00e-08	1	rcrw	1	0	1
rcgd	log	factor   3.9814516E-03  1.00e-08	2	rcgd	1	0	1
rcgw	log	factor   0.8919134      1.00e-08	2	rcgw	1	0	1
tl	log	factor    2.000000      1.00e-08	5	tl	1	0	1
xw	log	factor   1.9523951      1.00e-08	2.1	xw	1	0	1
yw	log	factor   2.5432844E-01  1.00e-08	1	yw	1	0	1
x	log	factor    1.156447      1.00e-08	2.3	x	1	0	1
y	log	factor   2.8469426E-01  1.00e-08	1	y	1	0	1
tlr	log	factor   6.8200000E-02  1.00e-08	10	tlr	1	0	1
tls	log	factor   0.2220000      1.00e-08	30	tls	1	0	1
beta	fixed	factor   0.1000000      1.00e-01	2.5e-01	beta	1	0	1
alpha	fixed	factor   0.500000      6.00e-01	7.9e-01	alpha	1	0	1
tcrit	log	factor   7.4800000E-04  1.00e-05	2	tcrit	1	0	1
* observation groups
q
swe
* observation data
q1 379.0 0.6 q
q2 361.0 0.6 q
q3 330.0 0.6 q
q4 399.0 0.6 q
q5 505.0 0.6 q
q6 515.0 0.6 q
q7 470.0 0.6 q
q8 432.0 0.6 q
q9 418.0 0.6 q
q10 412.0 0.6 q
q11 391.0 0.6 q
q12 427.0 0.6 q
q13 433.0 0.6 q
q14 400.0 0.6 q
q15 386.0 0.6 q
q16 333.0 0.6 q
q17 270.0 0.6 q
q18 243.0 0.6 q
q19 206.0 0.6 q
q20 174.0 0.6 q
q21 143.0 0.6 q
q22 130.0 0.6 q
q23 143.0 0.6 q
q24 137.0 0.6 q
q25 137.0 0.6 q
q26 158.0 0.6 q
q27 168.0 0.6 q
q28 217.0 0.6 q
q29 285.0 0.6 q
q30 317.0 0.6 q
q31 351.0 0.6 q
q32 345.0 0.6 q
q33 397.0 0.6 q
q34 371.0 0.6 q
q35 377.0 0.6 q
q36 445.0 0.6 q
q37 552.0 0.1 q
q38 515.0 0.6 q
q39 517.0 0.1 q
q40 555.0 0.1 q
q41 523.0 0.1 q
q42 498.0 0.6 q
q43 486.0 0.6 q
q44 506.0 0.6 q
q45 493.0 0.6 q
q46 487.0 0.6 q
q47 504.0 0.6 q
q48 487.0 0.6 q
q49 508.0 0.6 q
q50 522.0 0.1 q
q51 544.0 0.1 q
q52 399.0 0.6 q
q53 442.0 0.6 q
q54 430.0 0.6 q
q55 476.0 0.6 q
q56 534.0 0.1 q
q57 502.0 0.6 q
q58 474.0 0.6 q
q59 499.0 0.6 q
q61 444.0 0.6 q
q62 448.0 0.6 q
q63 439.0 0.6 q
q64 391.0 0.6 q
q65 414.0 0.6 q
q66 495.0 0.6 q
q67 494.0 0.6 q
q68 441.0 0.6 q
q69 424.0 0.6 q
q70 469.0 0.6 q
q71 465.0 0.6 q
q72 394.0 0.6 q
q73 409.0 0.6 q
q74 545.0 0.1 q
q75 635.0 0.1 q
q76 597.0 0.1 q
q77 513.0 0.6 q
q78 531.0 0.1 q
q79 532.0 0.1 q
q80 512.0 0.6 q
q81 456.0 0.6 q
q82 478.0 0.6 q
q83 476.0 0.6 q
q84 473.0 0.6 q
q85 432.0 0.6 q
q86 413.0 0.6 q
q87 449.0 0.6 q
q88 462.0 0.6 q
q89 437.0 0.6 q
q90 396.0 0.6 q
q91 356.0 0.6 q
q92 384.0 0.6 q
q93 357.0 0.6 q
q94 408.0 0.6 q
q95 405.0 0.6 q
q96 435.0 0.6 q
q97 417.0 0.6 q
q98 438.0 0.6 q
q99 390.0 0.6 q
q100 402.0 0.6 q
q101 394.0 0.6 q
q102 287.0 0.6 q
q103 299.0 0.6 q
q104 437.0 0.6 q
q105 564.0 0.1 q
q106 604.0 0.1 q
q107 620.0 0.1 q
q108 574.0 0.1 q
q109 524.0 0.1 q
q110 512.0 0.6 q
q111 459.0 0.6 q
q112 467.0 0.6 q
q113 461.0 0.6 q
q114 440.0 0.6 q
q115 437.0 0.6 q
q116 407.0 0.6 q
q117 412.0 0.6 q
q118 381.0 0.6 q
q119 410.0 0.6 q
q120 449.0 0.6 q
q121 457.0 0.6 q
q122 441.0 0.6 q
q123 474.0 0.6 q
q124 515.0 0.6 q
q125 496.0 0.6 q
q126 422.0 0.6 q
q127 453.0 0.6 q
q128 403.0 0.6 q
q129 488.0 0.6 q
q130 396.0 0.6 q
q131 407.0 0.6 q
q132 426.0 0.6 q
q133 413.0 0.6 q
q134 454.0 0.6 q
q135 455.0 0.6 q
q136 501.0 0.6 q
q137 468.0 0.6 q
q138 386.0 0.6 q
q139 410.0 0.6 q
q140 336.0 0.6 q
q141 338.0 0.6 q
q142 327.0 0.6 q
q143 315.0 0.6 q
q144 308.0 0.6 q
q145 303.0 0.6 q
q146 295.0 0.6 q
q147 310.0 0.6 q
q148 319.0 0.6 q
q149 340.0 0.6 q
q150 321.0 0.6 q
q151 344.0 0.6 q
q152 377.0 0.6 q
q153 367.0 0.6 q
q154 373.0 0.6 q
q155 382.0 0.6 q
q156 385.0 0.6 q
q157 391.0 0.6 q
q158 380.0 0.6 q
q159 370.0 0.6 q
q160 375.0 0.6 q
q161 362.0 0.6 q
q162 358.0 0.6 q
q163 358.0 0.6 q
q164 355.0 0.6 q
q165 354.0 0.6 q
q166 430.0 0.6 q
q167 410.0 0.6 q
q168 428.0 0.6 q
q169 521.0 0.1 q
q170 453.0 0.6 q
q171 427.0 0.6 q
q172 441.0 0.6 q
q173 452.0 0.6 q
q174 485.0 0.6 q
q175 516.0 0.1 q
q176 495.0 0.6 q
q177 591.0 0.1 q
q178 577.0 0.1 q
q179 620.0 0.1 q
q180 620.0 0.1 q
q181 608.0 0.1 q
q182 660.0 0.1 q
q183 739.0 0.1 q
q184 661.0 0.1 q
q185 559.0 0.1 q
q186 578.0 0.1 q
q187 574.0 0.1 q
q188 613.0 0.1 q
q189 569.0 0.1 q
q190 507.0 0.6 q
q191 535.0 0.1 q
q192 503.0 0.6 q
q193 504.0 0.6 q
q194 483.0 0.6 q
q195 464.0 0.6 q
q196 511.0 0.6 q
q197 552.0 0.1 q
q198 512.0 0.6 q
q199 570.0 0.1 q
q200 562.0 0.1 q
q201 620.0 0.1 q
q202 625.0 0.1 q
q203 802.0 0.1 q
q204 746.0 0.1 q
q205 739.0 0.1 q
q206 860.0 0.1 q
q207 934.0 0.1 q
q208 928.0 0.1 q
q209 962.0 0.1 q
q210 941.0 0.1 q
q211 917.0 0.1 q
q212 912.0 0.1 q
q213 983.0 0.1 q
q214 969.0 0.1 q
q215 896.0 0.1 q
q216 919.0 0.1 q
q217 942.0 0.1 q
q218 851.0 0.1 q
q219 821.0 0.1 q
q220 855.0 0.1 q
q221 880.0 0.1 q
q222 825.0 0.1 q
q223 851.0 0.1 q
q224 853.0 0.1 q
q225 916.0 0.1 q
q226 898.0 0.1 q
q227 890.0 0.1 q
q228 810.0 0.1 q
q229 750.0 0.1 q
q230 714.0 0.1 q
q231 638.0 0.1 q
q232 680.0 0.1 q
q233 766.0 0.1 q
q234 895.0 0.1 q
q235 892.0 0.1 q
q236 886.0 0.1 q
q237 911.0 0.1 q
q238 903.0 0.1 q
q239 899.0 0.1 q
q240 901.0 0.1 q
q241 886.0 0.1 q
q242 892.0 0.1 q
q243 869.0 0.1 q
q244 868.0 0.1 q
q245 837.0 0.1 q
q246 831.0 0.1 q
q247 810.0 0.1 q
q248 814.0 0.1 q
q249 816.0 0.1 q
q250 826.0 0.1 q
q251 854.0 0.1 q
q252 837.0 0.1 q
q253 830.0 0.1 q
q254 904.0 0.1 q
q255 945.0 0.1 q
q256 1030.0 0.1 q
q257 1060.0 0.1 q
q258 1150.0 0.1 q
q259 1240.0 0.1 q
q260 1610.0 0.1 q
q261 1850.0 0.1 q
q262 1860.0 0.1 q
q263 1840.0 0.1 q
q264 2050.0 0.1 q
q265 2100.0 0.1 q
q266 2280.0 0.1 q
q267 2730.0 0.1 q
q268 2630.0 0.1 q
q269 2450.0 0.1 q
q270 2190.0 0.1 q
q271 2230.0 0.1 q
q272 2400.0 0.1 q
q273 2370.0 0.1 q
q274 2350.0 0.1 q
q275 2320.0 0.1 q
q276 2340.0 0.1 q
q277 2270.0 0.1 q
q278 2140.0 0.1 q
q279 2040.0 0.1 q
q280 2170.0 0.1 q
q281 2280.0 0.1 q
q282 2370.0 0.1 q
q283 2350.0 0.1 q
q284 2300.0 0.1 q
q285 2230.0 0.1 q
q286 2230.0 0.1 q
q287 2100.0 0.1 q
q288 2080.0 0.1 q
q289 2200.0 0.1 q
q290 2220.0 0.1 q
q291 2230.0 0.1 q
q292 2290.0 0.1 q
q293 2260.0 0.1 q
q294 2280.0 0.1 q
q295 2350.0 0.1 q
q296 2360.0 0.1 q
q297 2400.0 0.1 q
q298 2440.0 0.1 q
q299 2440.0 0.1 q
q300 2360.0 0.1 q
q301 2280.0 0.1 q
q302 2530.0 0.1 q
q303 2460.0 0.1 q
q304 2490.0 0.1 q
q305 2280.0 0.1 q
q306 2300.0 0.1 q
q307 2290.0 0.1 q
q308 2400.0 0.1 q
q309 2320.0 0.1 q
q310 2340.0 0.1 q
q311 2260.0 0.1 q
q312 2230.0 0.1 q
q313 2230.0 0.1 q
q314 2310.0 0.1 q
q315 2280.0 0.1 q
q316 2270.0 0.1 q
q317 2230.0 0.1 q
q318 2100.0 0.1 q
q319 2180.0 0.1 q
q320 2280.0 0.1 q
q321 2130.0 0.1 q
q322 2170.0 0.1 q
q323 2210.0 0.1 q
q324 2090.0 0.1 q
q325 2290.0 0.1 q
q326 2270.0 0.1 q
q327 2260.0 0.1 q
q328 2300.0 0.1 q
q329 2350.0 0.1 q
q330 2260.0 0.1 q
q331 2360.0 0.1 q
q332 2310.0 0.1 q
q333 2470.0 0.1 q
q334 2590.0 0.1 q
q335 2670.0 0.1 q
q336 2480.0 0.1 q
q337 2440.0 0.1 q
q338 2440.0 0.1 q
q339 2420.0 0.1 q
q340 2260.0 0.1 q
q341 2080.0 0.1 q
q342 2270.0 0.1 q
q343 2190.0 0.1 q
q344 2230.0 0.1 q
q345 2220.0 0.1 q
q346 2080.0 0.1 q
q347 1960.0 0.1 q
q348 2040.0 0.1 q
q349 2090.0 0.1 q
q350 2040.0 0.1 q
q351 2040.0 0.1 q
q352 2050.0 0.1 q
q353 2200.0 0.1 q
q354 2270.0 0.1 q
q355 2080.0 0.1 q
q356 1740.0 0.1 q
q357 1650.0 0.1 q
q358 1570.0 0.1 q
q359 1560.0 0.1 q
q360 1520.0 0.1 q
q361 1450.0 0.1 q
q362 1420.0 0.1 q
q363 1400.0 0.1 q
q364 1350.0 0.1 q
q365 1280.0 0.1 q
q366 1350.0 0.1 q
q367 1360.0 0.1 q
q368 1290.0 0.1 q
q369 1240.0 0.1 q
q370 1300.0 0.1 q
q371 1410.0 0.1 q
q372 1550.0 0.1 q
q373 1550.0 0.1 q
q374 1470.0 0.1 q
q375 1360.0 0.1 q
q376 1350.0 0.1 q
q377 1330.0 0.1 q
q378 1340.0 0.1 q
q379 1380.0 0.1 q
q380 1360.0 0.1 q
q381 1340.0 0.1 q
q382 1300.0 0.1 q
q383 1270.0 0.1 q
q384 1250.0 0.1 q
q385 1240.0 0.1 q
q386 1270.0 0.1 q
q387 1280.0 0.1 q
q388 1300.0 0.1 q
q389 1290.0 0.1 q
q390 1190.0 0.1 q
q391 1140.0 0.1 q
q392 1110.0 0.1 q
q393 1100.0 0.1 q
q394 1100.0 0.1 q
q395 1060.0 0.1 q
q396 1030.0 0.1 q
q397 996.0 0.1 q
q398 1000.0 0.1 q
q399 1040.0 0.1 q
q400 1020.0 0.1 q
q401 1060.0 0.1 q
q402 1060.0 0.1 q
q403 1070.0 0.1 q
q404 1060.0 0.1 q
q405 1100.0 0.1 q
q406 1050.0 0.1 q
q407 1010.0 0.1 q
q408 1070.0 0.1 q
q409 992.0 0.1 q
q410 962.0 0.1 q
q411 908.0 0.1 q
q412 923.0 0.1 q
q413 960.0 0.1 q
q414 985.0 0.1 q
q415 975.0 0.1 q
q416 1020.0 0.1 q
q417 1040.0 0.1 q
q418 973.0 0.1 q
q419 883.0 0.1 q
q420 894.0 0.1 q
q421 904.0 0.1 q
q422 961.0 0.1 q
q423 957.0 0.1 q
q424 985.0 0.1 q
q425 969.0 0.1 q
q426 932.0 0.1 q
q427 914.0 0.1 q
q428 936.0 0.1 q
q429 987.0 0.1 q
q430 971.0 0.1 q
q431 926.0 0.1 q
q432 937.0 0.1 q
q433 923.0 0.1 q
q434 926.0 0.1 q
q435 935.0 0.1 q
q436 925.0 0.1 q
q437 926.0 0.1 q
q438 959.0 0.1 q
q439 947.0 0.1 q
q440 943.0 0.1 q
q441 970.0 0.1 q
q442 972.0 0.1 q
q443 1050.0 0.1 q
q444 1020.0 0.1 q
q445 1010.0 0.1 q
q446 1070.0 0.1 q
q447 1260.0 0.1 q
q448 1120.0 0.1 q
q449 1000.0 0.1 q
q450 989.0 0.1 q
q451 933.0 0.1 q
q452 940.0 0.1 q
q453 906.0 0.1 q
q454 896.0 0.1 q
q455 904.0 0.1 q
q456 907.0 0.1 q
q457 910.0 0.1 q
q458 929.0 0.1 q
q459 903.0 0.1 q
q460 902.0 0.1 q
q461 913.0 0.1 q
q462 904.0 0.1 q
q463 932.0 0.1 q
q464 897.0 0.1 q
q465 844.0 0.1 q
q466 820.0 0.1 q
q467 760.0 0.1 q
q468 764.0 0.1 q
q469 804.0 0.1 q
q470 838.0 0.1 q
q471 809.0 0.1 q
q472 798.0 0.1 q
q473 841.0 0.1 q
q474 831.0 0.1 q
q475 844.0 0.1 q
q476 834.0 0.1 q
q477 849.0 0.1 q
q478 853.0 0.1 q
q479 830.0 0.1 q
q480 814.0 0.1 q
q481 755.0 0.1 q
q482 748.0 0.1 q
q483 731.0 0.1 q
q484 695.0 0.1 q
q485 697.0 0.1 q
q486 729.0 0.1 q
q487 761.0 0.1 q
q488 751.0 0.1 q
q489 737.0 0.1 q
q490 743.0 0.1 q
q491 768.0 0.1 q
q492 873.0 0.1 q
q493 858.0 0.1 q
q494 874.0 0.1 q
q495 881.0 0.1 q
q496 852.0 0.1 q
q497 830.0 0.1 q
q498 846.0 0.1 q
q499 856.0 0.1 q
q500 866.0 0.1 q
q501 898.0 0.1 q
q502 930.0 0.1 q
q503 941.0 0.1 q
q504 897.0 0.1 q
q505 860.0 0.1 q
q506 860.0 0.1 q
q507 832.0 0.1 q
q508 834.0 0.1 q
q509 842.0 0.1 q
q510 855.0 0.1 q
q511 859.0 0.1 q
q512 860.0 0.1 q
q513 863.0 0.1 q
q514 836.0 0.1 q
q515 861.0 0.1 q
q516 800.0 0.1 q
q517 760.0 0.1 q
q518 700.0 0.1 q
q519 700.0 0.1 q
q520 689.0 0.1 q
q521 682.0 0.1 q
q522 739.0 0.1 q
q523 703.0 0.1 q
q524 688.0 0.1 q
q525 694.0 0.1 q
q526 728.0 0.1 q
q527 682.0 0.1 q
q528 686.0 0.1 q
q529 708.0 0.1 q
q530 720.0 0.1 q
q531 745.0 0.1 q
q532 735.0 0.1 q
q533 752.0 0.1 q
q534 694.0 0.1 q
q535 700.0 0.1 q
q536 709.0 0.1 q
q537 739.0 0.1 q
q538 747.0 0.1 q
q539 695.0 0.1 q
q540 629.0 0.1 q
q541 653.0 0.1 q
q542 698.0 0.1 q
q543 717.0 0.1 q
q544 732.0 0.1 q
q545 735.0 0.1 q
q546 819.0 0.1 q
q547 793.0 0.1 q
q548 810.0 0.1 q
q549 770.0 0.1 q
q550 739.0 0.1 q
q551 692.0 0.1 q
q552 706.0 0.1 q
q553 737.0 0.1 q
q554 692.0 0.1 q
q555 731.0 0.1 q
q556 687.0 0.1 q
q557 722.0 0.1 q
q558 746.0 0.1 q
q559 769.0 0.1 q
q560 775.0 0.1 q
q561 783.0 0.1 q
q562 749.0 0.1 q
q563 680.0 0.1 q
q564 765.0 0.1 q
q565 841.0 0.1 q
q566 4690.0 0.1 q
q567 1990.0 0.1 q
q568 1390.0 0.1 q
q569 1180.0 0.1 q
q570 1020.0 0.1 q
q571 955.0 0.1 q
q572 884.0 0.1 q
q573 860.0 0.1 q
q574 829.0 0.1 q
q575 792.0 0.1 q
q576 805.0 0.1 q
q577 1910.0 0.1 q
q578 1970.0 0.1 q
q579 1380.0 0.1 q
q580 1230.0 0.1 q
q581 1110.0 0.1 q
q582 1130.0 0.1 q
q583 1060.0 0.1 q
q584 967.0 0.1 q
q585 915.0 0.1 q
q586 881.0 0.1 q
q587 873.0 0.1 q
q588 890.0 0.1 q
q589 903.0 0.1 q
q590 898.0 0.1 q
q591 928.0 0.1 q
q592 896.0 0.1 q
q593 885.0 0.1 q
q594 894.0 0.1 q
q595 832.0 0.1 q
q596 833.0 0.1 q
q597 859.0 0.1 q
q598 867.0 0.1 q
q599 887.0 0.1 q
q600 944.0 0.1 q
q601 1050.0 0.1 q
q602 1110.0 0.1 q
q603 1070.0 0.1 q
q604 1050.0 0.1 q
q605 1050.0 0.1 q
q606 1100.0 0.1 q
q607 1380.0 0.1 q
q608 1530.0 0.1 q
q609 1490.0 0.1 q
q610 1430.0 0.1 q
q611 1390.0 0.1 q
q612 1280.0 0.1 q
q613 1250.0 0.1 q
q614 1160.0 0.1 q
q615 1120.0 0.1 q
q616 1110.0 0.1 q
q617 1110.0 0.1 q
q618 1130.0 0.1 q
q619 1170.0 0.1 q
q620 1170.0 0.1 q
q621 1160.0 0.1 q
q622 1150.0 0.1 q
q623 1090.0 0.1 q
q624 1090.0 0.1 q
q625 1040.0 0.1 q
q626 1050.0 0.1 q
q627 1030.0 0.1 q
q628 1010.0 0.1 q
q629 1020.0 0.1 q
q630 1070.0 0.1 q
q631 1110.0 0.1 q
q632 1090.0 0.1 q
q633 1090.0 0.1 q
q634 1120.0 0.1 q
q635 1200.0 0.1 q
q636 1180.0 0.1 q
q637 1100.0 0.1 q
q638 1070.0 0.1 q
q639 1070.0 0.1 q
q640 1010.0 0.1 q
q641 913.0 0.1 q
q642 910.0 0.1 q
q643 932.0 0.1 q
q644 972.0 0.1 q
q645 1120.0 0.1 q
q646 1130.0 0.1 q
q647 1160.0 0.1 q
q648 1230.0 0.1 q
q649 1350.0 0.1 q
q650 1440.0 0.1 q
q651 1500.0 0.1 q
q652 1510.0 0.1 q
q653 1520.0 0.1 q
q654 1580.0 0.1 q
q655 1630.0 0.1 q
q656 1670.0 0.1 q
q657 1830.0 0.1 q
q658 1850.0 0.1 q
q659 1770.0 0.1 q
q660 1760.0 0.1 q
q661 1740.0 0.1 q
q662 1620.0 0.1 q
q663 1430.0 0.1 q
q664 1420.0 0.1 q
q665 1420.0 0.1 q
q666 1570.0 0.1 q
q667 1730.0 0.1 q
q668 1560.0 0.1 q
q669 1440.0 0.1 q
q670 1430.0 0.1 q
q671 1470.0 0.1 q
q672 1490.0 0.1 q
q673 1570.0 0.1 q
q674 1620.0 0.1 q
q675 1620.0 0.1 q
q676 1620.0 0.1 q
q677 1600.0 0.1 q
q678 1490.0 0.1 q
q679 1410.0 0.1 q
q680 1370.0 0.1 q
q681 1330.0 0.1 q
q682 1240.0 0.1 q
q683 1250.0 0.1 q
q684 1280.0 0.1 q
q685 1270.0 0.1 q
q686 1330.0 0.1 q
q687 1290.0 0.1 q
q688 1310.0 0.1 q
q689 1310.0 0.1 q
q690 1410.0 0.1 q
q691 1380.0 0.1 q
q692 1480.0 0.1 q
q693 1400.0 0.1 q
q694 1390.0 0.1 q
q695 1370.0 0.1 q
q696 1380.0 0.1 q
q697 1290.0 0.1 q
q698 1280.0 0.1 q
q699 1280.0 0.1 q
q700 1190.0 0.1 q
q701 1140.0 0.1 q
q702 1070.0 0.1 q
q703 1040.0 0.1 q
q704 1080.0 0.1 q
q705 1110.0 0.1 q
q706 1010.0 0.1 q
q707 985.0 0.1 q
q708 946.0 0.1 q
q709 970.0 0.1 q
q710 946.0 0.1 q
q711 983.0 0.1 q
q712 942.0 0.1 q
q713 956.0 0.1 q
q714 1100.0 0.1 q
q715 1070.0 0.1 q
q716 1040.0 0.1 q
q717 1070.0 0.1 q
q718 1010.0 0.1 q
q719 983.0 0.1 q
q720 923.0 0.1 q
q721 1000.0 0.1 q
q722 962.0 0.1 q
q723 929.0 0.1 q
q724 851.0 0.1 q
q725 806.0 0.1 q
q726 815.0 0.1 q
q727 815.0 0.1 q
q728 811.0 0.1 q
q729 860.0 0.1 q
q730 833.0 0.1 q
q731 852.0 0.1 q
q732 878.0 0.1 q
q733 876.0 0.1 q
q734 755.0 0.1 q
q735 791.0 0.1 q
q736 825.0 0.1 q
q737 815.0 0.1 q
q738 820.0 0.1 q
q739 925.0 0.1 q
q740 898.0 0.1 q
q741 907.0 0.1 q
q742 938.0 0.1 q
q743 965.0 0.1 q
q744 920.0 0.1 q
q745 948.0 0.1 q
q746 960.0 0.1 q
q747 969.0 0.1 q
q748 939.0 0.1 q
q749 924.0 0.1 q
q750 924.0 0.1 q
q751 842.0 0.1 q
q752 863.0 0.1 q
q753 842.0 0.1 q
q754 813.0 0.1 q
q755 756.0 0.1 q
q756 742.0 0.1 q
q757 807.0 0.1 q
q758 800.0 0.1 q
q759 784.0 0.1 q
q760 746.0 0.1 q
q761 771.0 0.1 q
q762 778.0 0.1 q
q763 750.0 0.1 q
q764 743.0 0.1 q
q765 768.0 0.1 q
q766 773.0 0.1 q
q767 797.0 0.1 q
q768 830.0 0.1 q
q769 824.0 0.1 q
q770 830.0 0.1 q
q771 839.0 0.1 q
q772 837.0 0.1 q
q773 841.0 0.1 q
q774 794.0 0.1 q
q775 800.0 0.1 q
q776 830.0 0.1 q
q777 805.0 0.1 q
q778 745.0 0.1 q
q779 719.0 0.1 q
q780 743.0 0.1 q
q781 761.0 0.1 q
q782 707.0 0.1 q
q783 725.0 0.1 q
q784 775.0 0.1 q
q785 787.0 0.1 q
q786 786.0 0.1 q
q787 704.0 0.1 q
q788 616.0 0.1 q
q789 593.0 0.1 q
q790 684.0 0.1 q
q791 666.0 0.1 q
q792 639.0 0.1 q
q793 647.0 0.1 q
q794 579.0 0.1 q
q795 578.0 0.1 q
q796 592.0 0.1 q
q797 582.0 0.1 q
q798 559.0 0.1 q
q799 553.0 0.1 q
q800 561.0 0.1 q
q801 593.0 0.1 q
q802 639.0 0.1 q
q803 637.0 0.1 q
q804 596.0 0.1 q
q805 562.0 0.1 q
q806 605.0 0.1 q
q807 591.0 0.1 q
q808 593.0 0.1 q
q809 556.0 0.1 q
q810 480.0 0.6 q
q811 523.0 0.1 q
q812 523.0 0.1 q
q813 524.0 0.1 q
q814 494.0 0.6 q
q815 538.0 0.1 q
q816 520.0 0.1 q
q817 561.0 0.1 q
q818 564.0 0.1 q
q819 611.0 0.1 q
q820 608.0 0.1 q
q821 643.0 0.1 q
q822 665.0 0.1 q
q823 599.0 0.1 q
q824 657.0 0.1 q
q825 630.0 0.1 q
q826 618.0 0.1 q
q827 628.0 0.1 q
q828 634.0 0.1 q
q829 642.0 0.1 q
q830 603.0 0.1 q
q831 798.0 0.1 q
q832 808.0 0.1 q
q833 787.0 0.1 q
q834 768.0 0.1 q
q835 766.0 0.1 q
q836 802.0 0.1 q
q837 795.0 0.1 q
q838 768.0 0.1 q
q839 714.0 0.1 q
q840 708.0 0.1 q
q841 676.0 0.1 q
q842 743.0 0.1 q
q843 714.0 0.1 q
q844 652.0 0.1 q
q845 620.0 0.1 q
q846 595.0 0.1 q
q847 615.0 0.1 q
q848 578.0 0.1 q
q849 610.0 0.1 q
q850 651.0 0.1 q
q851 610.0 0.1 q
q852 593.0 0.1 q
q853 567.0 0.1 q
q854 557.0 0.1 q
q855 627.0 0.1 q
q856 602.0 0.1 q
q857 587.0 0.1 q
q858 583.0 0.1 q
q859 583.0 0.1 q
q860 563.0 0.1 q
q861 555.0 0.1 q
q862 549.0 0.1 q
q863 638.0 0.1 q
q864 708.0 0.1 q
q865 775.0 0.1 q
q866 715.0 0.1 q
q867 811.0 0.1 q
q868 820.0 0.1 q
q869 817.0 0.1 q
q870 773.0 0.1 q
q871 787.0 0.1 q
q872 803.0 0.1 q
q873 781.0 0.1 q
q874 772.0 0.1 q
q875 793.0 0.1 q
q876 882.0 0.1 q
q877 1720.0 0.1 q
q878 2160.0 0.1 q
q879 1480.0 0.1 q
q880 1310.0 0.1 q
q881 1170.0 0.1 q
q882 1170.0 0.1 q
q883 1190.0 0.1 q
q884 1190.0 0.1 q
q885 1110.0 0.1 q
q886 2029.9999999999998 0.1 q
q887 1960.0 0.1 q
q888 1780.0 0.1 q
q889 1630.0 0.1 q
q890 1670.0 0.1 q
q891 1680.0 0.1 q
q892 1680.0 0.1 q
q893 1710.0 0.1 q
q894 1730.0 0.1 q
q895 1760.0 0.1 q
q896 1760.0 0.1 q
q897 1670.0 0.1 q
q898 1690.0 0.1 q
q899 1570.0 0.1 q
q900 1620.0 0.1 q
q901 1700.0 0.1 q
q902 1830.0 0.1 q
q903 1860.0 0.1 q
q904 1910.0 0.1 q
q905 1880.0 0.1 q
q906 1960.0 0.1 q
q907 2200.0 0.1 q
q908 2840.0 0.1 q
q909 2660.0 0.1 q
q910 2000.0 0.1 q
q911 1850.0 0.1 q
q912 1650.0 0.1 q
q913 1520.0 0.1 q
q914 1420.0 0.1 q
q915 1400.0 0.1 q
q916 1300.0 0.1 q
q917 1300.0 0.1 q
q918 1230.0 0.1 q
q919 1250.0 0.1 q
q920 1190.0 0.1 q
q921 1180.0 0.1 q
q922 1120.0 0.1 q
q923 1110.0 0.1 q
q924 1130.0 0.1 q
q925 1160.0 0.1 q
q926 1240.0 0.1 q
q927 1220.0 0.1 q
q928 1200.0 0.1 q
q929 1260.0 0.1 q
q930 1320.0 0.1 q
q931 1260.0 0.1 q
q932 1240.0 0.1 q
q933 1500.0 0.1 q
q934 1410.0 0.1 q
q935 1550.0 0.1 q
q936 1450.0 0.1 q
q937 1390.0 0.1 q
q938 1360.0 0.1 q
q939 1420.0 0.1 q
q940 1740.0 0.1 q
q941 2000.0 0.1 q
q942 2029.9999999999998 0.1 q
q943 1910.0 0.1 q
q944 1880.0 0.1 q
q945 1820.0 0.1 q
q946 1740.0 0.1 q
q947 1720.0 0.1 q
q948 1730.0 0.1 q
q949 2020.0 0.1 q
q950 2420.0 0.1 q
q951 2680.0 0.1 q
q952 2560.0 0.1 q
q953 2730.0 0.1 q
q954 2960.0 0.1 q
q955 3120.0 0.1 q
q956 3110.0 0.1 q
q957 3100.0 0.1 q
q958 2930.0 0.1 q
q959 2860.0 0.1 q
q960 2720.0 0.1 q
q961 2700.0 0.1 q
q962 2660.0 0.1 q
q963 2460.0 0.1 q
q964 2300.0 0.1 q
q965 2230.0 0.1 q
q966 2570.0 0.1 q
q967 4460.0 0.1 q
q968 3910.0 0.1 q
q969 3690.0 0.1 q
q970 3670.0 0.1 q
q971 3640.0 0.1 q
q972 3320.0 0.1 q
q973 3120.0 0.1 q
q974 2910.0 0.1 q
q975 2670.0 0.1 q
q976 2580.0 0.1 q
q977 2500.0 0.1 q
q978 2570.0 0.1 q
q979 2690.0 0.1 q
q980 2730.0 0.1 q
q981 2610.0 0.1 q
q982 2490.0 0.1 q
q983 2410.0 0.1 q
q984 2370.0 0.1 q
q985 2260.0 0.1 q
q986 2210.0 0.1 q
q987 2150.0 0.1 q
q988 2190.0 0.1 q
q989 2220.0 0.1 q
q990 2150.0 0.1 q
q991 2080.0 0.1 q
q992 2040.0 0.1 q
q993 1900.0 0.1 q
q994 1880.0 0.1 q
q995 1880.0 0.1 q
q996 1940.0 0.1 q
q997 1860.0 0.1 q
q998 2009.9999999999998 0.1 q
q999 2200.0 0.1 q
q1000 2470.0 0.1 q
q1001 2640.0 0.1 q
q1002 2720.0 0.1 q
q1003 2630.0 0.1 q
q1004 2550.0 0.1 q
q1005 2480.0 0.1 q
q1006 2520.0 0.1 q
q1007 2370.0 0.1 q
q1008 2360.0 0.1 q
q1009 2360.0 0.1 q
q1010 2400.0 0.1 q
q1011 2410.0 0.1 q
q1012 2210.0 0.1 q
q1013 2160.0 0.1 q
q1014 2220.0 0.1 q
q1015 2250.0 0.1 q
q1016 2400.0 0.1 q
q1017 2700.0 0.1 q
q1018 2940.0 0.1 q
q1019 3280.0 0.1 q
q1020 3370.0 0.1 q
q1021 3510.0 0.1 q
q1022 3610.0 0.1 q
q1023 3460.0 0.1 q
q1024 3330.0 0.1 q
q1025 3020.0 0.1 q
q1026 2830.0 0.1 q
q1027 2600.0 0.1 q
q1028 2470.0 0.1 q
q1029 2350.0 0.1 q
q1030 2400.0 0.1 q
q1031 2380.0 0.1 q
q1032 2470.0 0.1 q
q1033 2410.0 0.1 q
q1034 2300.0 0.1 q
q1035 2330.0 0.1 q
q1036 2440.0 0.1 q
q1037 2620.0 0.1 q
q1038 2480.0 0.1 q
q1039 2600.0 0.1 q
q1040 2500.0 0.1 q
q1041 2490.0 0.1 q
q1042 2420.0 0.1 q
q1043 2400.0 0.1 q
q1044 2440.0 0.1 q
q1045 2300.0 0.1 q
q1046 2260.0 0.1 q
q1047 2340.0 0.1 q
q1048 2550.0 0.1 q
q1049 2600.0 0.1 q
q1050 2690.0 0.1 q
q1051 2890.0 0.1 q
q1052 3020.0 0.1 q
q1053 3200.0 0.1 q
q1054 3280.0 0.1 q
q1055 3140.0 0.1 q
q1056 3160.0 0.1 q
q1057 3150.0 0.1 q
q1058 3270.0 0.1 q
q1059 3510.0 0.1 q
q1060 3670.0 0.1 q
q1061 3960.0 0.1 q
q1062 4030.0000000000005 0.1 q
q1063 3970.0 0.1 q
q1064 3990.0 0.1 q
q1065 3780.0 0.1 q
q1066 3540.0 0.1 q
q1067 3480.0 0.1 q
q1068 3550.0 0.1 q
q1069 3440.0 0.1 q
q1070 3280.0 0.1 q
q1071 3170.0 0.1 q
q1072 3180.0 0.1 q
q1073 3270.0 0.1 q
q1074 3230.0 0.1 q
q1075 3110.0 0.1 q
q1076 3010.0 0.1 q
q1077 3050.0 0.1 q
q1078 2950.0 0.1 q
q1079 3060.0 0.1 q
q1080 3400.0 0.1 q
q1081 3420.0 0.1 q
q1082 3350.0 0.1 q
q1083 3400.0 0.1 q
q1084 3350.0 0.1 q
q1085 3060.0 0.1 q
q1086 2890.0 0.1 q
q1087 2900.0 0.1 q
q1088 2960.0 0.1 q
q1089 2850.0 0.1 q
q1090 2560.0 0.1 q
q1091 2630.0 0.1 q
q1092 2670.0 0.1 q
q1093 2740.0 0.1 q
q1094 2730.0 0.1 q
q1095 2740.0 0.1 q
q1096 2780.0 0.1 q
q1097 2730.0 0.1 q
q1098 2850.0 0.1 q
q1099 2980.0 0.1 q
q1100 2920.0 0.1 q
q1101 2970.0 0.1 q
q1102 2930.0 0.1 q
q1103 2950.0 0.1 q
q1104 3010.0 0.1 q
q1105 2920.0 0.1 q
q1106 2930.0 0.1 q
q1107 3000.0 0.1 q
q1108 2980.0 0.1 q
q1109 2960.0 0.1 q
q1110 2820.0 0.1 q
q1111 2830.0 0.1 q
q1112 2760.0 0.1 q
q1113 2710.0 0.1 q
q1114 2570.0 0.1 q
q1115 2570.0 0.1 q
q1116 2530.0 0.1 q
q1117 2590.0 0.1 q
q1118 2590.0 0.1 q
q1119 2460.0 0.1 q
q1120 2340.0 0.1 q
q1121 2320.0 0.1 q
q1122 2200.0 0.1 q
q1123 2210.0 0.1 q
q1124 2260.0 0.1 q
q1125 2250.0 0.1 q
q1126 2200.0 0.1 q
q1127 2220.0 0.1 q
q1128 2230.0 0.1 q
q1129 2280.0 0.1 q
q1130 2230.0 0.1 q
q1131 2190.0 0.1 q
q1132 2210.0 0.1 q
q1133 2120.0 0.1 q
q1134 2140.0 0.1 q
q1135 2080.0 0.1 q
q1136 2080.0 0.1 q
q1137 2100.0 0.1 q
q1138 1940.0 0.1 q
q1139 1880.0 0.1 q
q1140 1870.0 0.1 q
q1141 1890.0 0.1 q
q1142 1840.0 0.1 q
q1143 1840.0 0.1 q
q1144 1880.0 0.1 q
q1145 1940.0 0.1 q
q1146 1870.0 0.1 q
q1147 1800.0 0.1 q
q1148 1760.0 0.1 q
q1149 1710.0 0.1 q
q1150 1710.0 0.1 q
q1151 1690.0 0.1 q
q1152 1690.0 0.1 q
q1153 1650.0 0.1 q
q1154 1620.0 0.1 q
q1155 1640.0 0.1 q
q1156 1710.0 0.1 q
q1157 1710.0 0.1 q
q1158 1680.0 0.1 q
q1159 1620.0 0.1 q
q1160 1620.0 0.1 q
q1161 1580.0 0.1 q
q1162 1660.0 0.1 q
q1163 1700.0 0.1 q
q1164 1700.0 0.1 q
q1165 1690.0 0.1 q
q1166 1660.0 0.1 q
q1167 1650.0 0.1 q
q1168 1630.0 0.1 q
q1169 1620.0 0.1 q
q1170 1590.0 0.1 q
q1171 1580.0 0.1 q
q1172 1580.0 0.1 q
q1173 1550.0 0.1 q
q1174 1560.0 0.1 q
q1175 1500.0 0.1 q
q1176 1520.0 0.1 q
q1177 1460.0 0.1 q
q1178 1440.0 0.1 q
q1179 1450.0 0.1 q
q1180 1450.0 0.1 q
q1181 1470.0 0.1 q
q1182 1510.0 0.1 q
q1183 1500.0 0.1 q
q1184 1510.0 0.1 q
q1185 1540.0 0.1 q
q1186 1530.0 0.1 q
q1187 1430.0 0.1 q
q1188 1360.0 0.1 q
q1189 1380.0 0.1 q
q1190 1310.0 0.1 q
q1191 1180.0 0.1 q
q1192 1290.0 0.1 q
q1193 1340.0 0.1 q
q1194 1340.0 0.1 q
q1195 1320.0 0.1 q
q1196 1370.0 0.1 q
q1197 1350.0 0.1 q
q1198 1340.0 0.1 q
q1199 1320.0 0.1 q
q1200 1340.0 0.1 q
q1201 1320.0 0.1 q
q1202 1360.0 0.1 q
q1203 1350.0 0.1 q
q1204 1320.0 0.1 q
q1205 1340.0 0.1 q
q1206 1350.0 0.1 q
q1207 1330.0 0.1 q
q1208 1330.0 0.1 q
q1209 1370.0 0.1 q
q1210 1350.0 0.1 q
q1211 1300.0 0.1 q
q1212 1250.0 0.1 q
q1213 1250.0 0.1 q
q1214 1230.0 0.1 q
q1215 1220.0 0.1 q
q1216 1220.0 0.1 q
q1217 1270.0 0.1 q
q1218 1230.0 0.1 q
q1219 1220.0 0.1 q
q1220 1230.0 0.1 q
q1221 1190.0 0.1 q
q1222 1170.0 0.1 q
q1223 1140.0 0.1 q
q1224 1170.0 0.1 q
q1225 1180.0 0.1 q
q1226 1190.0 0.1 q
q1227 1220.0 0.1 q
q1228 1220.0 0.1 q
q1229 1230.0 0.1 q
q1230 1270.0 0.1 q
q1231 1270.0 0.1 q
q1232 1210.0 0.1 q
q1233 1120.0 0.1 q
q1234 1170.0 0.1 q
q1235 1110.0 0.1 q
q1236 1070.0 0.1 q
q1237 1230.0 0.1 q
q1238 1590.0 0.1 q
q1239 1430.0 0.1 q
q1240 1330.0 0.1 q
q1241 1300.0 0.1 q
q1242 1310.0 0.1 q
q1243 1250.0 0.1 q
q1244 1340.0 0.1 q
q1245 1280.0 0.1 q
q1246 1240.0 0.1 q
q1247 1190.0 0.1 q
q1248 1310.0 0.1 q
q1249 1350.0 0.1 q
q1250 1340.0 0.1 q
q1251 1320.0 0.1 q
q1252 1340.0 0.1 q
q1253 1310.0 0.1 q
q1254 1280.0 0.1 q
q1255 1260.0 0.1 q
q1256 1230.0 0.1 q
q1257 1300.0 0.1 q
q1258 1320.0 0.1 q
q1259 1290.0 0.1 q
q1260 1200.0 0.1 q
q1261 1240.0 0.1 q
q1262 1420.0 0.1 q
q1263 1370.0 0.1 q
q1264 1380.0 0.1 q
q1265 1400.0 0.1 q
q1266 1330.0 0.1 q
q1267 1300.0 0.1 q
q1268 1290.0 0.1 q
q1269 1270.0 0.1 q
q1270 1280.0 0.1 q
q1271 1240.0 0.1 q
q1272 1240.0 0.1 q
q1273 1250.0 0.1 q
q1274 1260.0 0.1 q
q1275 1230.0 0.1 q
q1276 1240.0 0.1 q
q1277 1210.0 0.1 q
q1278 1190.0 0.1 q
q1279 1170.0 0.1 q
q1280 1190.0 0.1 q
q1281 1200.0 0.1 q
q1282 1200.0 0.1 q
q1283 1220.0 0.1 q
q1284 1330.0 0.1 q
q1285 1380.0 0.1 q
q1286 1440.0 0.1 q
q1287 1420.0 0.1 q
q1288 1410.0 0.1 q
q1289 1410.0 0.1 q
q1290 1380.0 0.1 q
q1291 1390.0 0.1 q
q1292 1400.0 0.1 q
q1293 1350.0 0.1 q
q1294 1380.0 0.1 q
q1295 1370.0 0.1 q
q1296 1370.0 0.1 q
q1297 1380.0 0.1 q
q1298 1380.0 0.1 q
q1299 1380.0 0.1 q
q1300 1400.0 0.1 q
q1301 1410.0 0.1 q
q1302 1420.0 0.1 q
q1303 1400.0 0.1 q
q1304 1400.0 0.1 q
q1305 1380.0 0.1 q
q1306 1380.0 0.1 q
q1307 1320.0 0.1 q
q1308 1240.0 0.1 q
q1309 1230.0 0.1 q
q1310 1260.0 0.1 q
q1311 1170.0 0.1 q
q1312 1160.0 0.1 q
q1313 1220.0 0.1 q
q1314 1210.0 0.1 q
q1315 1200.0 0.1 q
q1316 1130.0 0.1 q
q1317 1130.0 0.1 q
q1318 1130.0 0.1 q
q1319 1140.0 0.1 q
q1320 1160.0 0.1 q
q1321 1120.0 0.1 q
q1322 1130.0 0.1 q
q1323 1150.0 0.1 q
q1324 1130.0 0.1 q
q1325 1130.0 0.1 q
q1326 1190.0 0.1 q
q1327 1210.0 0.1 q
q1328 1230.0 0.1 q
q1329 1200.0 0.1 q
q1330 1190.0 0.1 q
q1331 1190.0 0.1 q
q1332 1190.0 0.1 q
q1333 1180.0 0.1 q
q1334 1090.0 0.1 q
q1335 997.0 0.1 q
q1336 1010.0 0.1 q
q1337 1060.0 0.1 q
q1338 1070.0 0.1 q
q1339 1090.0 0.1 q
q1340 1060.0 0.1 q
q1341 1020.0 0.1 q
q1342 1030.0 0.1 q
q1343 992.0 0.1 q
q1344 1000.0 0.1 q
q1345 1030.0 0.1 q
q1346 1030.0 0.1 q
q1347 1020.0 0.1 q
q1348 1060.0 0.1 q
q1349 1010.0 0.1 q
q1350 992.0 0.1 q
q1351 979.0 0.1 q
q1352 1010.0 0.1 q
q1353 1070.0 0.1 q
q1354 1050.0 0.1 q
q1355 1040.0 0.1 q
q1356 981.0 0.1 q
q1357 1030.0 0.1 q
q1358 1010.0 0.1 q
q1359 955.0 0.1 q
q1360 978.0 0.1 q
q1361 964.0 0.1 q
q1362 906.0 0.1 q
q1363 892.0 0.1 q
q1364 904.0 0.1 q
q1365 912.0 0.1 q
q1366 902.0 0.1 q
q1367 870.0 0.1 q
q1368 896.0 0.1 q
q1369 905.0 0.1 q
q1370 961.0 0.1 q
q1371 977.0 0.1 q
q1372 981.0 0.1 q
q1373 1000.0 0.1 q
q1374 1060.0 0.1 q
q1375 1110.0 0.1 q
q1376 1160.0 0.1 q
q1377 1120.0 0.1 q
q1378 1080.0 0.1 q
q1379 1010.0 0.1 q
q1380 973.0 0.1 q
q1381 945.0 0.1 q
q1382 973.0 0.1 q
q1383 962.0 0.1 q
q1384 930.0 0.1 q
q1385 946.0 0.1 q
q1386 944.0 0.1 q
q1387 976.0 0.1 q
q1388 964.0 0.1 q
q1389 1000.0 0.1 q
q1390 981.0 0.1 q
q1391 1030.0 0.1 q
q1392 1030.0 0.1 q
q1393 1050.0 0.1 q
q1394 1050.0 0.1 q
q1395 1180.0 0.1 q
q1396 1130.0 0.1 q
q1397 1150.0 0.1 q
q1398 1140.0 0.1 q
q1399 1170.0 0.1 q
q1400 1210.0 0.1 q
q1401 1210.0 0.1 q
q1402 1300.0 0.1 q
q1403 1330.0 0.1 q
q1404 1240.0 0.1 q
q1405 1130.0 0.1 q
q1406 1090.0 0.1 q
q1407 1060.0 0.1 q
q1408 1020.0 0.1 q
q1409 1040.0 0.1 q
q1410 1030.0 0.1 q
q1411 1040.0 0.1 q
q1412 1050.0 0.1 q
q1413 1020.0 0.1 q
q1414 1020.0 0.1 q
q1415 1060.0 0.1 q
q1416 1030.0 0.1 q
q1417 1220.0 0.1 q
q1418 1220.0 0.1 q
q1419 1070.0 0.1 q
q1420 1050.0 0.1 q
q1421 1100.0 0.1 q
q1422 1130.0 0.1 q
q1423 1140.0 0.1 q
q1424 1130.0 0.1 q
q1425 1120.0 0.1 q
q1426 1090.0 0.1 q
q1427 1130.0 0.1 q
q1428 1150.0 0.1 q
q1429 1120.0 0.1 q
q1430 1100.0 0.1 q
q1431 1130.0 0.1 q
q1432 1110.0 0.1 q
q1433 1070.0 0.1 q
q1434 1030.0 0.1 q
q1435 1060.0 0.1 q
q1436 1050.0 0.1 q
q1437 1070.0 0.1 q
q1438 1120.0 0.1 q
q1439 1110.0 0.1 q
q1440 1130.0 0.1 q
q1441 1150.0 0.1 q
q1442 1090.0 0.1 q
q1443 1090.0 0.1 q
q1444 1130.0 0.1 q
q1445 1070.0 0.1 q