pcf
* control data
restart estimation
42    10135      18       0       2
2    2 single point   1   0   0
10.0  -3  0.3  0.03  10  lamforgive derforgive
10.0  10.0  0.001
0.1  noaui
50  0.005  4  4  0.005  4
1  1  1  PARSAVEITN
* singular value decomposition
1
42 5E-06
1
* parameter groups
ddsd         relative 0.025  0.0  switch  2.0 parabolic 1.0e-4 0.5 smaller
ddsw         relative 0.025  0.0  switch  2.0 parabolic 1.0e-4 0.5 smaller
ddgd         relative 0.025  0.0  switch  2.0 parabolic 1.0e-4 0.5 smaller
ddgw         relative 0.025  0.0  switch  2.0 parabolic 1.0e-4 0.5 smaller
rcsd         relative 0.025  0.0  switch  2.0 parabolic 1.0e-4 0.5 smaller
rcsw         relative 0.025  0.0  switch  2.0 parabolic 1.0e-4 0.5 smaller
rcrd         relative 0.025  0.0  switch  2.0 parabolic 1.0e-4 0.5 smaller
rcrw         relative 0.025  0.0  switch  2.0 parabolic 1.0e-4 0.5 smaller
rcgd         relative 0.025  0.0  switch  2.0 parabolic 1.0e-4 0.5 smaller
rcgw         relative 0.025  0.0  switch  2.0 parabolic 1.0e-4 0.5 smaller
tl           relative 0.025  0.0  switch  2.0 parabolic 1.0e-4 0.5 smaller
xw           relative 0.025  0.0  switch  2.0 parabolic 1.0e-4 0.5 smaller
yw           relative 0.03  0.0  switch  2.0 parabolic 1.0e-4 0.5 smaller
x           relative 0.025  0.0  switch  2.0 parabolic 1.0e-4 0.5 smaller
y            relative 0.025  0.0  switch  2.0 parabolic 1.0e-4 0.5 smaller
tlr			 relative 0.5  0.0  switch  2.0 parabolic 1.0e-4 0.5 smaller
tls			 relative 0.5  0.0  switch  2.0 parabolic 1.0e-4 0.5 smaller
beta			 relative 0.025  0.0  switch  2.0 parabolic 1.0e-4 0.5 smaller
* parameter data
ddsd	log	factor   0.2871300      1.00e-01	2.1	ddsd	1	0	1
ddsw	log	factor   0.2301400      1.00e-01	2.1	ddsw	1	0	1
ddgd	log	factor    0.9      1.00e-08	2.1	ddgd	1	0	1
ddgw	log	factor   0.1877398      1.00e-08	2.1	ddgw	1	0	1
rcs1d	log	factor    0.9      1.00e-08	2	rcsd	1	0	1
rcs1w	log	factor    0.9      1.00e-08	2	rcsw	1	0	1
rcs2d	log	factor    0.9      1.00e-08	2	rcsd	1	0	1
rcs2w	log	factor    0.9      1.00e-08	2	rcsw	1	0	1
rcs3d	log	factor   1.1237974E-02  1.00e-08	2	rcsd	1	0	1
rcs3w	log	factor   0.7095428      1.00e-08	2	rcsw	1	0	1
rcs4d	log	factor   1.7027849E-03  1.00e-08	2	rcsd	1	0	1
rcs4w	log	factor   1.9900724E-03  1.00e-08	2	rcsw	1	0	1
rcs5d	log	factor   0.9046437      1.00e-08	2	rcsd	1	0	1
rcs5w	log	factor    0.9      1.00e-08	2	rcsw	1	0	1
rcs6d	log	factor   2.2004121E-02  1.00e-08	2	rcsd	1	0	1
rcs6w	log	factor    0.9      1.00e-08	2	rcsw	1	0	1
rcs7d	log	factor   4.9404009E-03  1.00e-08	2	rcsd	1	0	1
rcs7w	log	factor    0.9      1.00e-08	2	rcsw	1	0	1
rcr1d	log	factor   0.9      1.00e-08	2	rcrd	1	0	1
rcr1w	log	factor    0.9      1.00e-08	2	rcrw	1	0	1
rcr2d	log	factor   0.1036747      1.00e-08	2	rcrd	1	0	1
rcr2w	log	factor   1.0352389E-02  1.00e-08	2	rcrw	1	0	1
rcr3d	log	factor   3.9041752E-03  1.00e-08	2	rcrd	1	0	1
rcr3w	log	factor   5.2697620E-03  1.00e-08	2	rcrw	1	0	1
rcr4d	log	factor   1.6609191E-03  1.00e-08	2	rcrd	1	0	1
rcr4w	log	factor   1.3732826E-03  1.00e-08	2	rcrw	1	0	1
rcr5d	log	factor   3.3200859E-03  1.00e-08	2	rcrd	1	0	1
rcr5w	log	factor   5.2041455E-03  1.00e-08	2	rcrw	1	0	1
rcr6d	log	factor   1.2448492E-02  1.00e-08	2	rcrd	1	0	1
rcr6w	log	factor   2.8207164E-02  1.00e-08	2	rcrw	1	0	1
rcr7d	log	factor   1.1699713E-02  1.00e-08	2	rcrd	1	0	1
rcr7w	log	factor   1.2453562E-02  1.00e-08	2	rcrw	1	0	1
rcgd	log	factor   3.9814516E-02  1.00e-08	2	rcgd	1	0	1
rcgw	log	factor   0.8919134      1.00e-08	2	rcgw	1	0	1
tl	log	factor    2.000000      1.00e-08	5	tl	1	0	1
xw	log	factor   1.01      1.00e-08	1.1	xw	1	0	1
yw	log	factor   2.5432844E-04  1.00e-08	1	yw	1	0	1
x	log	factor    1.0156447      1.00e-08	1.1	x	1	0	1
y	log	factor   2.8469426E-02  1.00e-08	1	y	1	0	1
tlr	log	factor   6.8200000E-02  1.00e-08	10	tlr	1	0	1
tls	log	factor   0.2220000      1.00e-08	30	tls	1	0	1
beta	log	factor   0.3100000      2.00e-01	3.5e-01	beta	1	0	1
* observation groups
q
swe
* observation data
q1 379.0 1.0 q
q2 361.0 1.0 q
q3 330.0 1.0 q
q4 399.0 1.0 q
q5 505.0 1.0 q
q6 515.0 1.0 q
q7 470.0 1.0 q
q8 432.0 1.0 q
q9 418.0 1.0 q
q10 412.0 1.0 q
q11 391.0 1.0 q
q12 427.0 1.0 q
q13 433.0 1.0 q
q14 400.0 1.0 q
q15 386.0 1.0 q
q16 333.0 1.0 q
q17 270.0 1.0 q
q18 243.0 1.0 q
q19 206.0 1.0 q
q20 174.0 1.0 q
q21 143.0 1.0 q
q22 130.0 1.0 q
q23 143.0 1.0 q
q24 137.0 1.0 q
q25 137.0 1.0 q
q26 158.0 1.0 q
q27 168.0 1.0 q
q28 217.0 1.0 q
q29 285.0 1.0 q
q30 317.0 1.0 q
q31 351.0 1.0 q
q32 345.0 1.0 q
q33 397.0 1.0 q
q34 371.0 1.0 q
q35 377.0 1.0 q
q36 445.0 1.0 q
q37 552.0 1.0 q
q38 515.0 1.0 q
q39 517.0 1.0 q
q40 555.0 1.0 q
q41 523.0 1.0 q
q42 498.0 1.0 q
q43 486.0 1.0 q
q44 506.0 1.0 q
q45 493.0 1.0 q
q46 487.0 1.0 q
q47 504.0 1.0 q
q48 487.0 1.0 q
q49 508.0 1.0 q
q50 522.0 1.0 q
q51 544.0 1.0 q
q52 399.0 1.0 q
q53 442.0 1.0 q
q54 430.0 1.0 q
q55 476.0 1.0 q
q56 534.0 1.0 q
q57 502.0 1.0 q
q58 474.0 1.0 q
q59 499.0 1.0 q
q61 444.0 1.0 q
q62 448.0 1.0 q
q63 439.0 1.0 q
q64 391.0 1.0 q
q65 414.0 1.0 q
q66 495.0 1.0 q
q67 494.0 1.0 q
q68 441.0 1.0 q
q69 424.0 1.0 q
q70 469.0 1.0 q
q71 465.0 1.0 q
q72 394.0 1.0 q
q73 409.0 1.0 q
q74 545.0 1.0 q
q75 635.0 1.0 q
q76 597.0 1.0 q
q77 513.0 1.0 q
q78 531.0 1.0 q
q79 532.0 1.0 q
q80 512.0 1.0 q
q81 456.0 1.0 q
q82 478.0 1.0 q
q83 476.0 1.0 q
q84 473.0 1.0 q
q85 432.0 1.0 q
q86 413.0 1.0 q
q87 449.0 1.0 q
q88 462.0 1.0 q
q89 437.0 1.0 q
q90 396.0 1.0 q
q91 356.0 1.0 q
q92 384.0 1.0 q
q93 357.0 1.0 q
q94 408.0 1.0 q
q95 405.0 1.0 q
q96 435.0 1.0 q
q97 417.0 1.0 q
q98 438.0 1.0 q
q99 390.0 1.0 q
q100 402.0 1.0 q
q101 394.0 1.0 q
q102 287.0 1.0 q
q103 299.0 1.0 q
q104 437.0 1.0 q
q105 564.0 1.0 q
q106 604.0 1.0 q
q107 620.0 1.0 q
q108 574.0 1.0 q
q109 524.0 1.0 q
q110 512.0 1.0 q
q111 459.0 1.0 q
q112 467.0 1.0 q
q113 461.0 1.0 q
q114 440.0 1.0 q
q115 437.0 1.0 q
q116 407.0 1.0 q
q117 412.0 1.0 q
q118 381.0 1.0 q
q119 410.0 1.0 q
q120 449.0 1.0 q
q121 457.0 1.0 q
q122 441.0 1.0 q
q123 474.0 1.0 q
q124 515.0 1.0 q
q125 496.0 1.0 q
q126 422.0 1.0 q
q127 453.0 1.0 q
q128 403.0 1.0 q
q129 488.0 1.0 q
q130 396.0 1.0 q
q131 407.0 1.0 q
q132 426.0 1.0 q
q133 413.0 1.0 q
q134 454.0 1.0 q
q135 455.0 1.0 q
q136 501.0 1.0 q
q137 468.0 1.0 q
q138 386.0 1.0 q
q139 410.0 1.0 q
q140 336.0 1.0 q
q141 338.0 1.0 q
q142 327.0 1.0 q
q143 315.0 1.0 q
q144 308.0 1.0 q
q145 303.0 1.0 q
q146 295.0 1.0 q
q147 310.0 1.0 q
q148 319.0 1.0 q
q149 340.0 1.0 q
q150 321.0 1.0 q
q151 344.0 1.0 q
q152 377.0 1.0 q
q153 367.0 1.0 q
q154 373.0 1.0 q
q155 382.0 1.0 q
q156 385.0 1.0 q
q157 391.0 1.0 q
q158 380.0 1.0 q
q159 370.0 1.0 q
q160 375.0 1.0 q
q161 362.0 1.0 q
q162 358.0 1.0 q
q163 358.0 1.0 q
q164 355.0 1.0 q
q165 354.0 1.0 q
q166 430.0 1.0 q
q167 410.0 1.0 q
q168 428.0 1.0 q
q169 521.0 1.0 q
q170 453.0 1.0 q
q171 427.0 1.0 q
q172 441.0 1.0 q
q173 452.0 1.0 q
q174 485.0 1.0 q
q175 516.0 1.0 q
q176 495.0 1.0 q
q177 591.0 1.0 q
q178 577.0 1.0 q
q179 620.0 1.0 q
q180 620.0 1.0 q
q181 608.0 1.0 q
q182 660.0 1.0 q
q183 739.0 1.0 q
q184 661.0 1.0 q
q185 559.0 1.0 q
q186 578.0 1.0 q
q187 574.0 1.0 q
q188 613.0 1.0 q
q189 569.0 1.0 q
q190 507.0 1.0 q
q191 535.0 1.0 q
q192 503.0 1.0 q
q193 504.0 1.0 q
q194 483.0 1.0 q
q195 464.0 1.0 q
q196 511.0 1.0 q
q197 552.0 1.0 q
q198 512.0 1.0 q
q199 570.0 1.0 q
q200 562.0 1.0 q
q201 620.0 1.0 q
q202 625.0 1.0 q
q203 802.0 1.0 q
q204 746.0 1.0 q
q205 739.0 1.0 q
q206 860.0 1.0 q
q207 934.0 1.0 q
q208 928.0 1.0 q
q209 962.0 1.0 q
q210 941.0 1.0 q
q211 917.0 1.0 q
q212 912.0 1.0 q
q213 983.0 1.0 q
q214 969.0 1.0 q
q215 896.0 1.0 q
q216 919.0 1.0 q
q217 942.0 1.0 q
q218 851.0 1.0 q
q219 821.0 1.0 q
q220 855.0 1.0 q
q221 880.0 1.0 q
q222 825.0 1.0 q
q223 851.0 1.0 q
q224 853.0 1.0 q
q225 916.0 1.0 q
q226 898.0 1.0 q
q227 890.0 1.0 q
q228 810.0 1.0 q
q229 750.0 1.0 q
q230 714.0 1.0 q
q231 638.0 1.0 q
q232 680.0 1.0 q
q233 766.0 1.0 q
q234 895.0 1.0 q
q235 892.0 1.0 q
q236 886.0 1.0 q
q237 911.0 1.0 q
q238 903.0 1.0 q
q239 899.0 1.0 q
q240 901.0 1.0 q
q241 886.0 1.0 q
q242 892.0 1.0 q
q243 869.0 1.0 q
q244 868.0 1.0 q
q245 837.0 1.0 q
q246 831.0 1.0 q
q247 810.0 1.0 q
q248 814.0 1.0 q
q249 816.0 1.0 q
q250 826.0 1.0 q
q251 854.0 1.0 q
q252 837.0 1.0 q
q253 830.0 1.0 q
q254 904.0 1.0 q
q255 945.0 1.0 q
q256 1030.0 1.0 q
q257 1060.0 1.0 q
q258 1150.0 1.0 q
q259 1240.0 1.0 q
q260 1610.0 1.0 q
q261 1850.0 1.0 q
q262 1860.0 1.0 q
q263 1840.0 1.0 q
q264 2050.0 1.0 q
q265 2100.0 1.0 q
q270 2190.0 1.0 q
q278 2140.0 1.0 q
q279 2040.0 1.0 q
q287 2100.0 1.0 q
q288 2080.0 1.0 q
q290 2220.0 1.0 q
q293 2260.0 1.0 q
q311 2260.0 1.0 q
q318 2100.0 1.0 q
q321 2130.0 1.0 q
q324 2090.0 1.0 q
q327 2260.0 1.0 q
q330 2260.0 1.0 q
q340 2260.0 1.0 q
q341 2080.0 1.0 q
q343 2190.0 1.0 q
q345 2220.0 1.0 q
q346 2080.0 1.0 q
q347 1960.0 1.0 q
q348 2040.0 1.0 q
q349 2090.0 1.0 q
q350 2040.0 1.0 q
q351 2040.0 1.0 q
q352 2050.0 1.0 q
q355 2080.0 1.0 q
q356 1740.0 1.0 q
q357 1650.0 1.0 q
q358 1570.0 1.0 q
q359 1560.0 1.0 q
q360 1520.0 1.0 q
q361 1450.0 1.0 q
q362 1420.0 1.0 q
q363 1400.0 1.0 q
q364 1350.0 1.0 q
q365 1280.0 1.0 q
q366 1350.0 1.0 q
q367 1360.0 1.0 q
q368 1290.0 1.0 q
q369 1240.0 1.0 q
q370 1300.0 1.0 q
q371 1410.0 1.0 q
q372 1550.0 1.0 q
q373 1550.0 1.0 q
q374 1470.0 1.0 q
q375 1360.0 1.0 q
q376 1350.0 1.0 q
q377 1330.0 1.0 q
q378 1340.0 1.0 q
q379 1380.0 1.0 q
q380 1360.0 1.0 q
q381 1340.0 1.0 q
q382 1300.0 1.0 q
q383 1270.0 1.0 q
q384 1250.0 1.0 q
q385 1240.0 1.0 q
q386 1270.0 1.0 q
q387 1280.0 1.0 q
q388 1300.0 1.0 q
q389 1290.0 1.0 q
q390 1190.0 1.0 q
q391 1140.0 1.0 q
q392 1110.0 1.0 q
q393 1100.0 1.0 q
q394 1100.0 1.0 q
q395 1060.0 1.0 q
q396 1030.0 1.0 q
q397 996.0 1.0 q
q398 1000.0 1.0 q
q399 1040.0 1.0 q
q400 1020.0 1.0 q
q401 1060.0 1.0 q
q402 1060.0 1.0 q
q403 1070.0 1.0 q
q404 1060.0 1.0 q
q405 1100.0 1.0 q
q406 1050.0 1.0 q
q407 1010.0 1.0 q
q408 1070.0 1.0 q
q409 992.0 1.0 q
q410 962.0 1.0 q
q411 908.0 1.0 q
q412 923.0 1.0 q
q413 960.0 1.0 q
q414 985.0 1.0 q
q415 975.0 1.0 q
q416 1020.0 1.0 q
q417 1040.0 1.0 q
q418 973.0 1.0 q
q419 883.0 1.0 q
q420 894.0 1.0 q
q421 904.0 1.0 q
q422 961.0 1.0 q
q423 957.0 1.0 q
q424 985.0 1.0 q
q425 969.0 1.0 q
q426 932.0 1.0 q
q427 914.0 1.0 q
q428 936.0 1.0 q
q429 987.0 1.0 q
q430 971.0 1.0 q
q431 926.0 1.0 q
q432 937.0 1.0 q
q433 923.0 1.0 q
q434 926.0 1.0 q
q435 935.0 1.0 q
q436 925.0 1.0 q
q437 926.0 1.0 q
q438 959.0 1.0 q
q439 947.0 1.0 q
q440 943.0 1.0 q
q441 970.0 1.0 q
q442 972.0 1.0 q
q443 1050.0 1.0 q
q444 1020.0 1.0 q
q445 1010.0 1.0 q
q446 1070.0 1.0 q
q447 1260.0 1.0 q
q448 1120.0 1.0 q
q449 1000.0 1.0 q
q450 989.0 1.0 q
q451 933.0 1.0 q
q452 940.0 1.0 q
q453 906.0 1.0 q
q454 896.0 1.0 q
q455 904.0 1.0 q
q456 907.0 1.0 q
q457 910.0 1.0 q
q458 929.0 1.0 q
q459 903.0 1.0 q
q460 902.0 1.0 q
q461 913.0 1.0 q
q462 904.0 1.0 q
q463 932.0 1.0 q
q464 897.0 1.0 q
q465 844.0 1.0 q
q466 820.0 1.0 q
q467 760.0 1.0 q
q468 764.0 1.0 q
q469 804.0 1.0 q
q470 838.0 1.0 q
q471 809.0 1.0 q
q472 798.0 1.0 q
q473 841.0 1.0 q
q474 831.0 1.0 q
q475 844.0 1.0 q
q476 834.0 1.0 q
q477 849.0 1.0 q
q478 853.0 1.0 q
q479 830.0 1.0 q
q480 814.0 1.0 q
q481 755.0 1.0 q
q482 748.0 1.0 q
q483 731.0 1.0 q
q484 695.0 1.0 q
q485 697.0 1.0 q
q486 729.0 1.0 q
q487 761.0 1.0 q
q488 751.0 1.0 q
q489 737.0 1.0 q
q490 743.0 1.0 q
q491 768.0 1.0 q
q492 873.0 1.0 q
q493 858.0 1.0 q
q494 874.0 1.0 q
q495 881.0 1.0 q
q496 852.0 1.0 q
q497 830.0 1.0 q
q498 846.0 1.0 q
q499 856.0 1.0 q
q500 866.0 1.0 q
q501 898.0 1.0 q
q502 930.0 1.0 q
q503 941.0 1.0 q
q504 897.0 1.0 q
q505 860.0 1.0 q
q506 860.0 1.0 q
q507 832.0 1.0 q
q508 834.0 1.0 q
q509 842.0 1.0 q
q510 855.0 1.0 q
q511 859.0 1.0 q
q512 860.0 1.0 q
q513 863.0 1.0 q
q514 836.0 1.0 q
q515 861.0 1.0 q
q516 800.0 1.0 q
q517 760.0 1.0 q
q518 700.0 1.0 q
q519 700.0 1.0 q
q520 689.0 1.0 q
q521 682.0 1.0 q
q522 739.0 1.0 q
q523 703.0 1.0 q
q524 688.0 1.0 q
q525 694.0 1.0 q
q526 728.0 1.0 q
q527 682.0 1.0 q
q528 686.0 1.0 q
q529 708.0 1.0 q
q530 720.0 1.0 q
q531 745.0 1.0 q
q532 735.0 1.0 q
q533 752.0 1.0 q
q534 694.0 1.0 q
q535 700.0 1.0 q
q536 709.0 1.0 q
q537 739.0 1.0 q
q538 747.0 1.0 q
q539 695.0 1.0 q
q540 629.0 1.0 q
q541 653.0 1.0 q
q542 698.0 1.0 q
q543 717.0 1.0 q
q544 732.0 1.0 q
q545 735.0 1.0 q
q546 819.0 1.0 q
q547 793.0 1.0 q
q548 810.0 1.0 q
q549 770.0 1.0 q
q550 739.0 1.0 q
q551 692.0 1.0 q
q552 706.0 1.0 q
q553 737.0 1.0 q
q554 692.0 1.0 q
q555 731.0 1.0 q
q556 687.0 1.0 q
q557 722.0 1.0 q
q558 746.0 1.0 q
q559 769.0 1.0 q
q560 775.0 1.0 q
q561 783.0 1.0 q
q562 749.0 1.0 q
q563 680.0 1.0 q
q564 765.0 1.0 q
q565 841.0 1.0 q
q567 1990.0 1.0 q
q568 1390.0 1.0 q
q569 1180.0 1.0 q
q570 1020.0 1.0 q
q571 955.0 1.0 q
q572 884.0 1.0 q
q573 860.0 1.0 q
q574 829.0 1.0 q
q575 792.0 1.0 q
q576 805.0 1.0 q
q577 1910.0 1.0 q
q578 1970.0 1.0 q
q579 1380.0 1.0 q
q580 1230.0 1.0 q
q581 1110.0 1.0 q
q582 1130.0 1.0 q
q583 1060.0 1.0 q
q584 967.0 1.0 q
q585 915.0 1.0 q
q586 881.0 1.0 q
q587 873.0 1.0 q
q588 890.0 1.0 q
q589 903.0 1.0 q
q590 898.0 1.0 q
q591 928.0 1.0 q
q592 896.0 1.0 q
q593 885.0 1.0 q
q594 894.0 1.0 q
q595 832.0 1.0 q
q596 833.0 1.0 q
q597 859.0 1.0 q
q598 867.0 1.0 q
q599 887.0 1.0 q
q600 944.0 1.0 q
q601 1050.0 1.0 q
q602 1110.0 1.0 q
q603 1070.0 1.0 q
q604 1050.0 1.0 q
q605 1050.0 1.0 q
q606 1100.0 1.0 q
q607 1380.0 1.0 q
q608 1530.0 1.0 q
q609 1490.0 1.0 q
q610 1430.0 1.0 q
q611 1390.0 1.0 q
q612 1280.0 1.0 q
q613 1250.0 1.0 q
q614 1160.0 1.0 q
q615 1120.0 1.0 q
q616 1110.0 1.0 q
q617 1110.0 1.0 q
q618 1130.0 1.0 q
q619 1170.0 1.0 q
q620 1170.0 1.0 q
q621 1160.0 1.0 q
q622 1150.0 1.0 q
q623 1090.0 1.0 q
q624 1090.0 1.0 q
q625 1040.0 1.0 q
q626 1050.0 1.0 q
q627 1030.0 1.0 q
q628 1010.0 1.0 q
q629 1020.0 1.0 q
q630 1070.0 1.0 q
q631 1110.0 1.0 q
q632 1090.0 1.0 q
q633 1090.0 1.0 q
q634 1120.0 1.0 q
q635 1200.0 1.0 q
q636 1180.0 1.0 q
q637 1100.0 1.0 q
q638 1070.0 1.0 q
q639 1070.0 1.0 q
q640 1010.0 1.0 q
q641 913.0 1.0 q
q642 910.0 1.0 q
q643 932.0 1.0 q
q644 972.0 1.0 q
q645 1120.0 1.0 q
q646 1130.0 1.0 q
q647 1160.0 1.0 q
q648 1230.0 1.0 q
q649 1350.0 1.0 q
q650 1440.0 1.0 q
q651 1500.0 1.0 q
q652 1510.0 1.0 q
q653 1520.0 1.0 q
q654 1580.0 1.0 q
q655 1630.0 1.0 q
q656 1670.0 1.0 q
q657 1830.0 1.0 q
q658 1850.0 1.0 q
q659 1770.0 1.0 q
q660 1760.0 1.0 q
q661 1740.0 1.0 q
q662 1620.0 1.0 q
q663 1430.0 1.0 q
q664 1420.0 1.0 q
q665 1420.0 1.0 q
q666 1570.0 1.0 q
q667 1730.0 1.0 q
q668 1560.0 1.0 q
q669 1440.0 1.0 q
q670 1430.0 1.0 q
q671 1470.0 1.0 q
q672 1490.0 1.0 q
q673 1570.0 1.0 q
q674 1620.0 1.0 q
q675 1620.0 1.0 q
q676 1620.0 1.0 q
q677 1600.0 1.0 q
q678 1490.0 1.0 q
q679 1410.0 1.0 q
q680 1370.0 1.0 q
q681 1330.0 1.0 q
q682 1240.0 1.0 q
q683 1250.0 1.0 q
q684 1280.0 1.0 q
q685 1270.0 1.0 q
q686 1330.0 1.0 q
q687 1290.0 1.0 q
q688 1310.0 1.0 q
q689 1310.0 1.0 q
q690 1410.0 1.0 q
q691 1380.0 1.0 q
q692 1480.0 1.0 q
q693 1400.0 1.0 q
q694 1390.0 1.0 q
q695 1370.0 1.0 q
q696 1380.0 1.0 q
q697 1290.0 1.0 q
q698 1280.0 1.0 q
q699 1280.0 1.0 q
q700 1190.0 1.0 q
q701 1140.0 1.0 q
q702 1070.0 1.0 q
q703 1040.0 1.0 q
q704 1080.0 1.0 q
q705 1110.0 1.0 q
q706 1010.0 1.0 q
q707 985.0 1.0 q
q708 946.0 1.0 q
q709 970.0 1.0 q
q710 946.0 1.0 q
q711 983.0 1.0 q
q712 942.0 1.0 q
q713 956.0 1.0 q
q714 1100.0 1.0 q
q715 1070.0 1.0 q
q716 1040.0 1.0 q
q717 1070.0 1.0 q
q718 1010.0 1.0 q
q719 983.0 1.0 q
q720 923.0 1.0 q
q721 1000.0 1.0 q
q722 962.0 1.0 q
q723 929.0 1.0 q
q724 851.0 1.0 q
q725 806.0 1.0 q
q726 815.0 1.0 q
q727 815.0 1.0 q
q728 811.0 1.0 q
q729 860.0 1.0 q
q730 833.0 1.0 q
q731 852.0 1.0 q
q732 878.0 1.0 q
q733 876.0 1.0 q
q734 755.0 1.0 q
q735 791.0 1.0 q
q736 825.0 1.0 q
q737 815.0 1.0 q
q738 820.0 1.0 q
q739 925.0 1.0 q
q740 898.0 1.0 q
q741 907.0 1.0 q
q742 938.0 1.0 q
q743 965.0 1.0 q
q744 920.0 1.0 q
q745 948.0 1.0 q
q746 960.0 1.0 q
q747 969.0 1.0 q
q748 939.0 1.0 q
q749 924.0 1.0 q
q750 924.0 1.0 q
q751 842.0 1.0 q
q752 863.0 1.0 q
q753 842.0 1.0 q
q754 813.0 1.0 q
q755 756.0 1.0 q
q756 742.0 1.0 q
q757 807.0 1.0 q
q758 800.0 1.0 q
q759 784.0 1.0 q
q760 746.0 1.0 q
q761 771.0 1.0 q
q762 778.0 1.0 q
q763 750.0 1.0 q
q764 743.0 1.0 q
q765 768.0 1.0 q
q766 773.0 1.0 q
q767 797.0 1.0 q
q768 830.0 1.0 q
q769 824.0 1.0 q
q770 830.0 1.0 q
q771 839.0 1.0 q
q772 837.0 1.0 q
q773 841.0 1.0 q
q774 794.0 1.0 q
q775 800.0 1.0 q
q776 830.0 1.0 q
q777 805.0 1.0 q
q778 745.0 1.0 q
q779 719.0 1.0 q
q780 743.0 1.0 q
q781 761.0 1.0 q
q782 707.0 1.0 q
q783 725.0 1.0 q
q784 775.0 1.0 q
q785 787.0 1.0 q
q786 786.0 1.0 q
q787 704.0 1.0 q
q788 616.0 1.0 q
q789 593.0 1.0 q
q790 684.0 1.0 q
q791 666.0 1.0 q
q792 639.0 1.0 q
q793 647.0 1.0 q
q794 579.0 1.0 q
q795 578.0 1.0 q
q796 592.0 1.0 q
q797 582.0 1.0 q
q798 559.0 1.0 q
q799 553.0 1.0 q
q800 561.0 1.0 q
q801 593.0 1.0 q
q802 639.0 1.0 q
q803 637.0 1.0 q
q804 596.0 1.0 q
q805 562.0 1.0 q
q806 605.0 1.0 q
q807 591.0 1.0 q
q808 593.0 1.0 q
q809 556.0 1.0 q
q810 480.0 1.0 q
q811 523.0 1.0 q
q812 523.0 1.0 q
q813 524.0 1.0 q
q814 494.0 1.0 q
q815 538.0 1.0 q
q816 520.0 1.0 q
q817 561.0 1.0 q
q818 564.0 1.0 q
q819 611.0 1.0 q
q820 608.0 1.0 q
q821 643.0 1.0 q
q822 665.0 1.0 q
q823 599.0 1.0 q
q824 657.0 1.0 q
q825 630.0 1.0 q
q826 618.0 1.0 q
q827 628.0 1.0 q
q828 634.0 1.0 q
q829 642.0 1.0 q
q830 603.0 1.0 q
q831 798.0 1.0 q
q832 808.0 1.0 q
q833 787.0 1.0 q
q834 768.0 1.0 q
q835 766.0 1.0 q
q836 802.0 1.0 q
q837 795.0 1.0 q
q838 768.0 1.0 q
q839 714.0 1.0 q
q840 708.0 1.0 q
q841 676.0 1.0 q
q842 743.0 1.0 q
q843 714.0 1.0 q
q844 652.0 1.0 q
q845 620.0 1.0 q
q846 595.0 1.0 q
q847 615.0 1.0 q
q848 578.0 1.0 q
q849 610.0 1.0 q
q850 651.0 1.0 q
q851 610.0 1.0 q
q852 593.0 1.0 q
q853 567.0 1.0 q
q854 557.0 1.0 q
q855 627.0 1.0 q
q856 602.0 1.0 q
q857 587.0 1.0 q
q858 583.0 1.0 q
q859 583.0 1.0 q
q860 563.0 1.0 q
q861 555.0 1.0 q
q862 549.0 1.0 q
q863 638.0 1.0 q
q864 708.0 1.0 q
q865 775.0 1.0 q
q866 715.0 1.0 q
q867 811.0 1.0 q
q868 820.0 1.0 q
q869 817.0 1.0 q
q870 773.0 1.0 q
q871 787.0 1.0 q
q872 803.0 1.0 q
q873 781.0 1.0 q
q874 772.0 1.0 q
q875 793.0 1.0 q
q876 882.0 1.0 q
q877 1720.0 1.0 q
q878 2160.0 1.0 q
q879 1480.0 1.0 q
q880 1310.0 1.0 q
q881 1170.0 1.0 q
q882 1170.0 1.0 q
q883 1190.0 1.0 q
q884 1190.0 1.0 q
q885 1110.0 1.0 q
q886 2029.9999999999998 1.0 q
q887 1960.0 1.0 q
q888 1780.0 1.0 q
q889 1630.0 1.0 q
q890 1670.0 1.0 q
q891 1680.0 1.0 q
q892 1680.0 1.0 q
q893 1710.0 1.0 q
q894 1730.0 1.0 q
q895 1760.0 1.0 q
q896 1760.0 1.0 q
q897 1670.0 1.0 q
q898 1690.0 1.0 q
q899 1570.0 1.0 q
q900 1620.0 1.0 q
q901 1700.0 1.0 q
q902 1830.0 1.0 q
q903 1860.0 1.0 q
q904 1910.0 1.0 q
q905 1880.0 1.0 q
q906 1960.0 1.0 q
q910 2000.0 1.0 q
q911 1850.0 1.0 q
q912 1650.0 1.0 q
q913 1520.0 1.0 q
q914 1420.0 1.0 q
q915 1400.0 1.0 q
q916 1300.0 1.0 q
q917 1300.0 1.0 q
q918 1230.0 1.0 q
q919 1250.0 1.0 q
q920 1190.0 1.0 q
q921 1180.0 1.0 q
q922 1120.0 1.0 q
q923 1110.0 1.0 q
q924 1130.0 1.0 q
q925 1160.0 1.0 q
q926 1240.0 1.0 q
q927 1220.0 1.0 q
q928 1200.0 1.0 q
q929 1260.0 1.0 q
q930 1320.0 1.0 q
q931 1260.0 1.0 q
q932 1240.0 1.0 q
q933 1500.0 1.0 q
q934 1410.0 1.0 q
q935 1550.0 1.0 q
q936 1450.0 1.0 q
q937 1390.0 1.0 q
q938 1360.0 1.0 q
q939 1420.0 1.0 q
q940 1740.0 1.0 q
q941 2000.0 1.0 q
q942 2029.9999999999998 1.0 q
q943 1910.0 1.0 q
q944 1880.0 1.0 q
q945 1820.0 1.0 q
q946 1740.0 1.0 q
q947 1720.0 1.0 q
q948 1730.0 1.0 q
q949 2020.0 1.0 q
q985 2260.0 1.0 q
q987 2150.0 1.0 q
q988 2190.0 1.0 q
q989 2220.0 1.0 q
q990 2150.0 1.0 q
q991 2080.0 1.0 q
q992 2040.0 1.0 q
q993 1900.0 1.0 q
q994 1880.0 1.0 q
q995 1880.0 1.0 q
q996 1940.0 1.0 q
q997 1860.0 1.0 q
q998 2009.9999999999998 1.0 q
q1013 2160.0 1.0 q
q1014 2220.0 1.0 q
q1015 2250.0 1.0 q
q1046 2260.0 1.0 q
q1124 2260.0 1.0 q
q1125 2250.0 1.0 q
q1127 2220.0 1.0 q
q1131 2190.0 1.0 q
q1133 2120.0 1.0 q
q1134 2140.0 1.0 q
q1135 2080.0 1.0 q
q1136 2080.0 1.0 q
q1137 2100.0 1.0 q
q1138 1940.0 1.0 q
q1139 1880.0 1.0 q
q1140 1870.0 1.0 q
q1141 1890.0 1.0 q
q1142 1840.0 1.0 q
q1143 1840.0 1.0 q
q1144 1880.0 1.0 q
q1145 1940.0 1.0 q
q1146 1870.0 1.0 q
q1147 1800.0 1.0 q
q1148 1760.0 1.0 q
q1149 1710.0 1.0 q
q1150 1710.0 1.0 q
q1151 1690.0 1.0 q
q1152 1690.0 1.0 q
q1153 1650.0 1.0 q
q1154 1620.0 1.0 q
q1155 1640.0 1.0 q
q1156 1710.0 1.0 q
q1157 1710.0 1.0 q
q1158 1680.0 1.0 q
q1159 1620.0 1.0 q
q1160 1620.0 1.0 q
q1161 1580.0 1.0 q
q1162 1660.0 1.0 q
q1163 1700.0 1.0 q
q1164 1700.0 1.0 q
q1165 1690.0 1.0 q
q1166 1660.0 1.0 q
q1167 1650.0 1.0 q
q1168 1630.0 1.0 q
q1169 1620.0 1.0 q
q1170 1590.0 1.0 q
q1171 1580.0 1.0 q
q1172 1580.0 1.0 q
q1173 1550.0 1.0 q
q1174 1560.0 1.0 q
q1175 1500.0 1.0 q
q1176 1520.0 1.0 q
q1177 1460.0 1.0 q
q1178 1440.0 1.0 q
q1179 1450.0 1.0 q
q1180 1450.0 1.0 q
q1181 1470.0 1.0 q
q1182 1510.0 1.0 q
q1183 1500.0 1.0 q
q1184 1510.0 1.0 q
q1185 1540.0 1.0 q
q1186 1530.0 1.0 q
q1187 1430.0 1.0 q
q1188 1360.0 1.0 q
q1189 1380.0 1.0 q
q1190 1310.0 1.0 q
q1191 1180.0 1.0 q
q1192 1290.0 1.0 q
q1193 1340.0 1.0 q
q1194 1340.0 1.0 q
q1195 1320.0 1.0 q
q1196 1370.0 1.0 q
q1197 1350.0 1.0 q
q1198 1340.0 1.0 q
q1199 1320.0 1.0 q
q1200 1340.0 1.0 q
q1201 1320.0 1.0 q
q1202 1360.0 1.0 q
q1203 1350.0 1.0 q
q1204 1320.0 1.0 q
q1205 1340.0 1.0 q
q1206 1350.0 1.0 q
q1207 1330.0 1.0 q
q1208 1330.0 1.0 q
q1209 1370.0 1.0 q
q1210 1350.0 1.0 q
q1211 1300.0 1.0 q
q1212 1250.0 1.0 q
q1213 1250.0 1.0 q
q1214 1230.0 1.0 q
q1215 1220.0 1.0 q
q1216 1220.0 1.0 q
q1217 1270.0 1.0 q
q1218 1230.0 1.0 q
q1219 1220.0 1.0 q
q1220 1230.0 1.0 q
q1221 1190.0 1.0 q
q1222 1170.0 1.0 q
q1223 1140.0 1.0 q
q1224 1170.0 1.0 q
q1225 1180.0 1.0 q
q1226 1190.0 1.0 q
q1227 1220.0 1.0 q
q1228 1220.0 1.0 q
q1229 1230.0 1.0 q
q1230 1270.0 1.0 q
q1231 1270.0 1.0 q
q1232 1210.0 1.0 q
q1233 1120.0 1.0 q
q1234 1170.0 1.0 q
q1235 1110.0 1.0 q
q1236 1070.0 1.0 q
q1237 1230.0 1.0 q
q1238 1590.0 1.0 q
q1239 1430.0 1.0 q
q1240 1330.0 1.0 q
q1241 1300.0 1.0 q
q1242 1310.0 1.0 q
q1243 1250.0 1.0 q
q1244 1340.0 1.0 q
q1245 1280.0 1.0 q
q1246 1240.0 1.0 q
q1247 1190.0 1.0 q
q1248 1310.0 1.0 q
q1249 1350.0 1.0 q
q1250 1340.0 1.0 q
q1251 1320.0 1.0 q
q1252 1340.0 1.0 q
q1253 1310.0 1.0 q
q1254 1280.0 1.0 q
q1255 1260.0 1.0 q
q1256 1230.0 1.0 q
q1257 1300.0 1.0 q
q1258 1320.0 1.0 q
q1259 1290.0 1.0 q
q1260 1200.0 1.0 q
q1261 1240.0 1.0 q
q1262 1420.0 1.0 q
q1263 1370.0 1.0 q
q1264 1380.0 1.0 q
q1265 1400.0 1.0 q
q1266 1330.0 1.0 q
q1267 1300.0 1.0 q
q1268 1290.0 1.0 q
q1269 1270.0 1.0 q
q1270 1280.0 1.0 q
q1271 1240.0 1.0 q
q1272 1240.0 1.0 q
q1273 1250.0 1.0 q
q1274 1260.0 1.0 q
q1275 1230.0 1.0 q
q1276 1240.0 1.0 q
q1277 1210.0 1.0 q
q1278 1190.0 1.0 q
q1279 1170.0 1.0 q
q1280 1190.0 1.0 q
q1281 1200.0 1.0 q
q1282 1200.0 1.0 q
q1283 1220.0 1.0 q
q1284 1330.0 1.0 q
q1285 1380.0 1.0 q
q1286 1440.0 1.0 q
q1287 1420.0 1.0 q
q1288 1410.0 1.0 q
q1289 1410.0 1.0 q
q1290 1380.0 1.0 q
q1291 1390.0 1.0 q
q1292 1400.0 1.0 q
q1293 1350.0 1.0 q
q1294 1380.0 1.0 q
q1295 1370.0 1.0 q
q1296 1370.0 1.0 q
q1297 1380.0 1.0 q
q1298 1380.0 1.0 q
q1299 1380.0 1.0 q
q1300 1400.0 1.0 q
q1301 1410.0 1.0 q
q1302 1420.0 1.0 q
q1303 1400.0 1.0 q
q1304 1400.0 1.0 q
q1305 1380.0 1.0 q
q1306 1380.0 1.0 q
q1307 1320.0 1.0 q
q1308 1240.0 1.0 q
q1309 1230.0 1.0 q
q1310 1260.0 1.0 q
q1311 1170.0 1.0 q
q1312 1160.0 1.0 q
q1313 1220.0 1.0 q
q1314 1210.0 1.0 q
q1315 1200.0 1.0 q
q1316 1130.0 1.0 q
q1317 1130.0 1.0 q
q1318 1130.0 1.0 q
q1319 1140.0 1.0 q
q1320 1160.0 1.0 q
q1321 1120.0 1.0 q
q1322 1130.0 1.0 q
q1323 1150.0 1.0 q
q1324 1130.0 1.0 q
q1325 1130.0 1.0 q
q1326 1190.0 1.0 q
q1327 1210.0 1.0 q
q1328 1230.0 1.0 q
q1329 1200.0 1.0 q
q1330 1190.0 1.0 q
q1331 1190.0 1.0 q
q1332 1190.0 1.0 q
q1333 1180.0 1.0 q
q1334 1090.0 1.0 q
q1335 997.0 1.0 q
q1336 1010.0 1.0 q
q1337 1060.0 1.0 q
q1338 1070.0 1.0 q
q1339 1090.0 1.0 q
q1340 1060.0 1.0 q
q1341 1020.0 1.0 q
q1342 1030.0 1.0 q
q1343 992.0 1.0 q
q1344 1000.0 1.0 q
q1345 1030.0 1.0 q
q1346 1030.0 1.0 q
q1347 1020.0 1.0 q
q1348 1060.0 1.0 q
q1349 1010.0 1.0 q
q1350 992.0 1.0 q
q1351 979.0 1.0 q
q1352 1010.0 1.0 q
q1353 1070.0 1.0 q
q1354 1050.0 1.0 q
q1355 1040.0 1.0 q
q1356 981.0 1.0 q
q1357 1030.0 1.0 q
q1358 1010.0 1.0 q
q1359 955.0 1.0 q
q1360 978.0 1.0 q
q1361 964.0 1.0 q
q1362 906.0 1.0 q
q1363 892.0 1.0 q
q1364 904.0 1.0 q
q1365 912.0 1.0 q
q1366 902.0 1.0 q
q1367 870.0 1.0 q
q1368 896.0 1.0 q
q1369 905.0 1.0 q
q1370 961.0 1.0 q
q1371 977.0 1.0 q
q1372 981.0 1.0 q
q1373 1000.0 1.0 q
q1374 1060.0 1.0 q
q1375 1110.0 1.0 q
q1376 1160.0 1.0 q
q1377 1120.0 1.0 q
q1378 1080.0 1.0 q
q1379 1010.0 1.0 q
q1380 973.0 1.0 q
q1381 945.0 1.0 q
q1382 973.0 1.0 q
q1383 962.0 1.0 q
q1384 930.0 1.0 q
q1385 946.0 1.0 q
q1386 944.0 1.0 q
q1387 976.0 1.0 q
q1388 964.0 1.0 q
q1389 1000.0 1.0 q
q1390 981.0 1.0 q
q1391 1030.0 1.0 q
q1392 1030.0 1.0 q
q1393 1050.0 1.0 q
q1394 1050.0 1.0 q
q1395 1180.0 1.0 q
q1396 1130.0 1.0 q
q1397 1150.0 1.0 q
q1398 1140.0 1.0 q
q1399 1170.0 1.0 q
q1400 1210.0 1.0 q
q1401 1210.0 1.0 q
q1402 1300.0 1.0 q
q1403 1330.0 1.0 q
q1404 1240.0 1.0 q
q1405 1130.0 1.0 q
q1406 1090.0 1.0 q
q1407 1060.0 1.0 q
q1408 1020.0 1.0 q
q1409 1040.0 1.0 q
q1410 1030.0 1.0 q
q1411 1040.0 1.0 q
q1412 1050.0 1.0 q
q1413 1020.0 1.0 q
q1414 1020.0 1.0 q
q1415 1060.0 1.0 q
q1416 1030.0 1.0 q
q1417 1220.0 1.0 q
q1418 1220.0 1.0 q
q1419 1070.0 1.0 q
q1420 1050.0 1.0 q
q1421 1100.0 1.0 q
q1422 1130.0 1.0 q
q1423 1140.0 1.0 q
q1424 1130.0 1.0 q
q1425 1120.0 1.0 q
q1426 1090.0 1.0 q
q1427 1130.0 1.0 q
q1428 1150.0 1.0 q
q1429 1120.0 1.0 q
q1430 1100.0 1.0 q
q1431 1130.0 1.0 q
q1432 1110.0 1.0 q
q1433 1070.0 1.0 q
q1434 1030.0 1.0 q
q1435 1060.0 1.0 q
q1436 1050.0 1.0 q
q1437 1070.0 1.0 q
q1438 1120.0 1.0 q
q1439 1110.0 1.0 q
q1440 1130.0 1.0 q
q1441 1150.0 1.0 q
q1442 1090.0 1.0 q
q1443 1090.0 1.0 q
q1444 1130.0 1.0 q
q1445 1070.0 1.0 q
q1446 910.0 1.0 q
q1447 861.0 1.0 q
q1448 879.0 1.0 q
q1449 883.0 1.0 q
q1450 857.0 1.0 q
q1451 885.0 1.0 q
q1452 890.0 1.0 q
q1453 902.0 1.0 q
q1454 908.0 1.0 q
q1455 932.0 1.0 q
q1456 885.0 1.0 q
q1457 924.0 1.0 q
q1458 895.0 1.0 q
q1459 922.0 1.0 q
q1460 935.0 1.0 q
q1461 919.0 1.0 q
q1462 927.0 1.0 q
q1463 920.0 1.0 q
q1464 1000.0 1.0 q
q1465 976.0 1.0 q
q1466 943.0 1.0 q
q1467 932.0 1.0 q
q1468 884.0 1.0 q
q1469 881.0 1.0 q
q1470 881.0 1.0 q
q1471 873.0 1.0 q
q1472 892.0 1.0 q
q1473 880.0 1.0 q
q1474 876.0 1.0 q
q1475 885.0 1.0 q
q1476 853.0 1.0 q
q1477 856.0 1.0 q
q1478 843.0 1.0 q
q1479 844.0 1.0 q
q1480 860.0 1.0 q
q1481 830.0 1.0 q
q1482 850.0 1.0 q
q1483 838.0 1.0 q
q1484 819.0 1.0 q
q1485 788.0 1.0 q
q1486 772.0 1.0 q
q1487 781.0 1.0 q
q1488 799.0 1.0 q
q1489 839.0 1.0 q
q1490 841.0 1.0 q
q1491 851.0 1.0 q
q1492 860.0 1.0 q
q1493 886.0 1.0 q
q1494 873.0 1.0 q
q1495 862.0 1.0 q
q1496 852.0 1.0 q
q1497 857.0 1.0 q
q1498 862.0 1.0 q
q1499 874.0 1.0 q
q1500 894.0 1.0 q
q1501 898.0 1.0 q
q1502 886.0 1.0 q
q1503 915.0 1.0 q
q1504 910.0 1.0 q
q1505 902.0 1.0 q
q1506 894.0 1.0 q
q1507 908.0 1.0 q
q1508 914.0 1.0 q
q1509 899.0 1.0 q
q1510 879.0 1.0 q
q1511 863.0 1.0 q
q1512 872.0 1.0 q
q1513 885.0 1.0 q
q1514 921.0 1.0 q
q1515 898.0 1.0 q
q1516 897.0 1.0 q
q1517 909.0 1.0 q
q1518 861.0 1.0 q
q1519 822.0 1.0 q
q1520 836.0 1.0 q
q1521 837.0 1.0 q
q1522 844.0 1.0 q
q1523 860.0 1.0 q
q1524 832.0 1.0 q
q1525 842.0 1.0 q
q1526 847.0 1.0 q
q1527 845.0 1.0 q
q1528 845.0 1.0 q
q1529 846.0 1.0 q
q1530 847.0 1.0 q
q1531 840.0 1.0 q
q1532 844.0 1.0 q
q1533 852.0 1.0 q
q1534 842.0 1.0 q
q1535 843.0 1.0 q
q1536 836.0 1.0 q
q1537 829.0 1.0 q
q1538 826.0 1.0 q
q1539 842.0 1.0 q
q1540 831.0 1.0 q
q1541 797.0 1.0 q
q1542 809.0 1.0 q
q1543 810.0 1.0 q
q1544 792.0 1.0 q
q1545 748.0 1.0 q
q1546 781.0 1.0 q
q1547 788.0 1.0 q
q1548 798.0 1.0 q
q1549 794.0 1.0 q
q1550 799.0 1.0 q
q1551 813.0 1.0 q
q1552 894.0 1.0 q
q1553 831.0 1.0 q
q1554 793.0 1.0 q
q1555 782.0 1.0 q
q1556 790.0 1.0 q
q1557 767.0 1.0 q
q1558 749.0 1.0 q
q1559 737.0 1.0 q
q1560 723.0 1.0 q
q1561 703.0 1.0 q
q1562 719.0 1.0 q
q1563 738.0 1.0 q
q1564 750.0 1.0 q
q1565 762.0 1.0 q
q1566 767.0 1.0 q
q1567 751.0 1.0 q
q1568 766.0 1.0 q
q1569 749.0 1.0 q
q1570 733.0 1.0 q
q1571 734.0 1.0 q
q1572 742.0 1.0 q
q1573 741.0 1.0 q
q1574 847.0 1.0 q
q1575 882.0 1.0 q
q1576 928.0 1.0 q
q1577 894.0 1.0 q
q1578 922.0 1.0 q
q1579 928.0 1.0 q
q1580 915.0 1.0 q
q1581 899.0 1.0 q
q1582 876.0 1.0 q
q1583 879.0 1.0 q
q1584 872.0 1.0 q
q1585 855.0 1.0 q
q1586 839.0 1.0 q
q1587 832.0 1.0 q
q1588 830.0 1.0 q
q1589 836.0 1.0 q
q1590 833.0 1.0 q
q1591 831.0 1.0 q
q1592 817.0 1.0 q
q1593 808.0 1.0 q
q1594 796.0 1.0 q
q1595 781.0 1.0 q
q1596 763.0 1.0 q
q1597 756.0 1.0 q
q1598 762.0 1.0 q
q1599 746.0 1.0 q
q1600 740.0 1.0 q
q1601 664.0 1.0 q
q1602 646.0 1.0 q
q1603 629.0 1.0 q
q1604 637.0 1.0 q
q1605 639.0 1.0 q
q1606 636.0 1.0 q
q1607 631.0 1.0 q
q1608 624.0 1.0 q
q1609 617.0 1.0 q
q1610 614.0 1.0 q
q1611 616.0 1.0 q
q1612 616.0 1.0 q
q1613 616.0 1.0 q
q1614 616.0 1.0 q
q1615 614.0 1.0 q
q1616 613.0 1.0 q
q1617 612.0 1.0 q
q1618 608.0 1.0 q
q1619 603.0 1.0 q
q1620 602.0 1.0 q
q1621 603.0 1.0 q
q1622 617.0 1.0 q
q1623 632.0 1.0 q
q1624 648.0 1.0 q
q1625 639.0 1.0 q
q1626 675.0 1.0 q
q1627 721.0 1.0 q
q1628 741.0 1.0 q
q1629 684.0 1.0 q
q1630 662.0 1.0 q
q1631 544.0 1.0 q
q1632 543.0 1.0 q
q1633 594.0 1.0 q
q1634 564.0 1.0 q
q1635 562.0 1.0 q
q1636 561.0 1.0 q
q1637 558.0 1.0 q
q1638 554.0 1.0 q
q1639 556.0 1.0 q
q1640 555.0 1.0 q
q1641 552.0 1.0 q
q1642 549.0 1.0 q
q1643 551.0 1.0 q
q1644 548.0 1.0 q
q1645 553.0 1.0 q
q1646 559.0 1.0 q
q1647 565.0 1.0 q
q1648 560.0 1.0 q
q1649 599.0 1.0 q
q1650 598.0 1.0 q
q1651 595.0 1.0 q
q1652 575.0 1.0 q
q1653 524.0 1.0 q
q1654 530.0 1.0 q
q1655 523.0 1.0 q
q1656 527.0 1.0 q
q1657 542.0 1.0 q
q1658 539.0 1.0 q
q1659 547.0 1.0 q
q1660 548.0 1.0 q
q1661 550.0 1.0 q
q1662 578.0 1.0 q
q1663 591.0 1.0 q
q1664 636.0 1.0 q
q1665 586.0 1.0 q
q1666 650.0 1.0 q
q1667 668.0 1.0 q
q1668 645.0 1.0 q
q1669 635.0 1.0 q
q1670 668.0 1.0 q
q1671 667.0 1.0 q
q1672 641.0 1.0 q
q1673 634.0 1.0 q
q1674 616.0 1.0 q
q1675 609.0 1.0 q
q1676 630.0 1.0 q
q1677 707.0 1.0 q
q1678 729.0 1.0 q
q1679 711.0 1.0 q
q1680 726.0 1.0 q
q1681 753.0 1.0 q
q1682 788.0 1.0 q
q1683 816.0 1.0 q
q1684 875.0 1.0 q
q1685 882.0 1.0 q
q1686 866.0 1.0 q
q1687 886.0 1.0 q
q1688 874.0 1.0 q
q1689 857.0 1.0 q
q1690 850.0 1.0 q
q1691 826.0 1.0 q
q1692 815.0 1.0 q
q1693 810.0 1.0 q
q1694 782.0 1.0 q
q1695 777.0 1.0 q
q1696 766.0 1.0 q
q1697 754.0 1.0 q
q1698 746.0 1.0 q
q1699 760.0 1.0 q