pcf
* control data
restart estimation
42    10135      18       0       2
2    2 single point   1   0   0
10.0  -3  0.3  0.03  10  lamforgive derforgive
10.0  10.0  0.001
0.1  noaui
0  0.005  4  4  0.005  4
1  1  1  PARSAVEITN
* singular value decomposition
1
42 5E-06
1
* parameter groups
ddsd         relative 0.025  0.0  switch  2.0 parabolic 1.0e-4 0.5 smaller
ddsw         relative 0.025  0.0  switch  2.0 parabolic 1.0e-4 0.5 smaller
ddgd         relative 0.025  0.0  switch  2.0 parabolic 1.0e-4 0.5 smaller
ddgw         relative 0.025  0.0  switch  2.0 parabolic 1.0e-4 0.5 smaller
rcsd         relative 0.025  0.0  switch  2.0 parabolic 1.0e-4 0.5 smaller
rcsw         relative 0.025  0.0  switch  2.0 parabolic 1.0e-4 0.5 smaller
rcrd         relative 0.025  0.0  switch  2.0 parabolic 1.0e-4 0.5 smaller
rcrw         relative 0.025  0.0  switch  2.0 parabolic 1.0e-4 0.5 smaller
rcgd         relative 0.025  0.0  switch  2.0 parabolic 1.0e-4 0.5 smaller
rcgw         relative 0.025  0.0  switch  2.0 parabolic 1.0e-4 0.5 smaller
tl           relative 0.025  0.0  switch  2.0 parabolic 1.0e-4 0.5 smaller
xw           relative 0.025  0.0  switch  2.0 parabolic 1.0e-4 0.5 smaller
yw           relative 0.03  0.0  switch  2.0 parabolic 1.0e-4 0.5 smaller
x           relative 0.025  0.0  switch  2.0 parabolic 1.0e-4 0.5 smaller
y            relative 0.025  0.0  switch  2.0 parabolic 1.0e-4 0.5 smaller
tlr			 relative 0.5  0.0  switch  2.0 parabolic 1.0e-4 0.5 smaller
tls			 relative 0.5  0.0  switch  2.0 parabolic 1.0e-4 0.5 smaller
beta			 relative 0.025  0.0  switch  2.0 parabolic 1.0e-4 0.5 smaller
* parameter data
ddsd	log	factor   0.2316400      1.00e-01	2.1	ddsd	1	0	1
ddsw	log	factor   0.2828800      1.00e-01	2.1	ddsw	1	0	1
ddgd	log	factor    2.082616      1.00e-08	2.1	ddgd	1	0	1
ddgw	log	factor   0.2635322      1.00e-08	2.1	ddgw	1	0	1
rcs1d	log	factor   0.9087407      1.00e-08	2	rcsd	1	0	1
rcs1w	log	factor   0.8783356      1.00e-08	2	rcsw	1	0	1
rcs2d	log	factor    2.000000      1.00e-08	2	rcsd	1	0	1
rcs2w	log	factor   3.2625923E-02  1.00e-08	2	rcsw	1	0	1
rcs3d	log	factor   1.4127530E-02  1.00e-08	1	rcsd	1	0	1
rcs3w	log	factor    1.000000      1.00e-08	1	rcsw	1	0	1
rcs4d	log	factor   1.7983459E-03  1.00e-08	1	rcsd	1	0	1
rcs4w	log	factor   2.1483028E-03  1.00e-08	1	rcsw	1	0	1
rcs5d	log	factor   0.3486103      1.00e-08	1	rcsd	1	0	1
rcs5w	log	factor   0.1581230      1.00e-08	1	rcsw	1	0	1
rcs6d	log	factor   7.2669861E-03  1.00e-08	1	rcsd	1	0	1
rcs6w	log	factor   0.2165990      1.00e-08	1	rcsw	1	0	1
rcs7d	log	factor   4.7937646E-03  1.00e-08	1	rcsd	1	0	1
rcs7w	log	factor    1.000000      1.00e-08	1	rcsw	1	0	1
rcr1d	log	factor   9.6175292E-03  1.00e-08	1	rcrd	1	0	1
rcr1w	log	factor   0.9976979      1.00e-08	1	rcrw	1	0	1
rcr2d	log	factor   1.3845957E-03  1.00e-08	1	rcrd	1	0	1
rcr2w	log	factor   0.5760568      1.00e-08	1	rcrw	1	0	1
rcr3d	log	factor   0.1979770      1.00e-08	1	rcrd	1	0	1
rcr3w	log	factor   1.0823148E-02  1.00e-08	1	rcrw	1	0	1
rcr4d	log	factor   2.6357388E-03  1.00e-08	1	rcrd	1	0	1
rcr4w	log	factor   1.5581989E-03  1.00e-08	1	rcrw	1	0	1
rcr5d	log	factor   1.4442066E-03  1.00e-08	1	rcrd	1	0	1
rcr5w	log	factor   1.2064776E-03  1.00e-08	1	rcrw	1	0	1
rcr6d	log	factor   1.3444273E-03  1.00e-08	1	rcrd	1	0	1
rcr6w	log	factor   1.4570208E-03  1.00e-08	1	rcrw	1	0	1
rcr7d	log	factor   1.1815225E-03  1.00e-08	1	rcrd	1	0	1
rcr7w	log	factor   1.2159588E-03  1.00e-08	1	rcrw	1	0	1
rcgd	log	factor   5.4507929E-02  1.00e-08	2	rcgd	1	0	1
rcgw	log	factor    1.251988      1.00e-08	2	rcgw	1	0	1
tl	log	factor    5.000000      1.00e-08	5	tl	1	0	1
xw	log	factor    1.952395      1.00e-08	2.1	xw	1	0	1
yw	log	factor   0.2543284      1.00e-08	1	yw	1	0	1
x	log	factor   0.9783510      1.00e-08	2.3	x	1	0	1
y	log	factor   2.9483425E-02  1.00e-08	1	y	1	0	1
tlr	log	factor   6.8200000E-02  1.00e-08	10	tlr	1	0	1
tls	log	factor   0.2220000      1.00e-08	30	tls	1	0	1
beta	log	factor   0.3000000      2.00e-01	3e-01	beta	1	0	1
* observation groups
q
swe
* observation data
 q1                    379.0000       0.707107      q
 q2                    361.0000       0.707107      q
 q3                    330.0000       0.707107      q
 q4                    399.0000       0.707107      q
 q5                    505.0000       0.707107      q
 q6                    515.0000       0.707107      q
 q7                    470.0000       0.707107      q
 q8                    432.0000       0.707107      q
 q9                    418.0000       0.707107      q
 q10                   412.0000       0.707107      q
 q11                   391.0000       0.707107      q
 q12                   427.0000       0.707107      q
 q13                   433.0000       0.707107      q
 q14                   400.0000       0.707107      q
 q15                   386.0000       0.707107      q
 q16                   333.0000       0.707107      q
 q17                   270.0000       0.707107      q
 q18                   243.0000       0.707107      q
 q19                   206.0000       0.707107      q
 q20                   174.0000       0.707107      q
 q21                   143.0000       0.707107      q
 q22                   130.0000       0.707107      q
 q23                   143.0000       0.707107      q
 q24                   137.0000       0.707107      q
 q25                   137.0000       0.707107      q
 q26                   158.0000       0.707107      q
 q27                   168.0000       0.707107      q
 q28                   217.0000       0.707107      q
 q29                   285.0000       0.707107      q
 q30                   317.0000       0.707107      q
 q31                   351.0000       0.707107      q
 q32                   345.0000       0.707107      q
 q33                   397.0000       0.707107      q
 q34                   371.0000       0.707107      q
 q35                   377.0000       0.707107      q
 q36                   445.0000       0.707107      q
 q37                   552.0000       0.707107      q
 q38                   515.0000       0.707107      q
 q39                   517.0000       0.707107      q
 q40                   555.0000       0.707107      q
 q41                   523.0000       0.707107      q
 q42                   498.0000       0.707107      q
 q43                   486.0000       0.707107      q
 q44                   506.0000       0.707107      q
 q45                   493.0000       0.707107      q
 q46                   487.0000       0.707107      q
 q47                   504.0000       0.707107      q
 q48                   487.0000       0.707107      q
 q49                   508.0000       0.707107      q
 q50                   522.0000       0.707107      q
 q51                   544.0000       0.707107      q
 q52                   399.0000       0.707107      q
 q53                   442.0000       0.707107      q
 q54                   430.0000       0.707107      q
 q55                   476.0000       0.707107      q
 q56                   534.0000       0.707107      q
 q57                   502.0000       0.707107      q
 q58                   474.0000       0.707107      q
 q59                   499.0000       0.707107      q
 q61                   444.0000       0.707107      q
 q62                   448.0000       0.707107      q
 q63                   439.0000       0.707107      q
 q64                   391.0000       0.707107      q
 q65                   414.0000       0.707107      q
 q66                   495.0000       0.707107      q
 q67                   494.0000       0.707107      q
 q68                   441.0000       0.707107      q
 q69                   424.0000       0.707107      q
 q70                   469.0000       0.707107      q
 q71                   465.0000       0.707107      q
 q72                   394.0000       0.707107      q
 q73                   409.0000       0.707107      q
 q74                   545.0000       0.707107      q
 q75                   635.0000       0.707107      q
 q76                   597.0000       0.707107      q
 q77                   513.0000       0.707107      q
 q78                   531.0000       0.707107      q
 q79                   532.0000       0.707107      q
 q80                   512.0000       0.707107      q
 q81                   456.0000       0.707107      q
 q82                   478.0000       0.707107      q
 q83                   476.0000       0.707107      q
 q84                   473.0000       0.707107      q
 q85                   432.0000       0.707107      q
 q86                   413.0000       0.707107      q
 q87                   449.0000       0.707107      q
 q88                   462.0000       0.707107      q
 q89                   437.0000       0.707107      q
 q90                   396.0000       0.707107      q
 q91                   356.0000       0.707107      q
 q92                   384.0000       0.707107      q
 q93                   357.0000       0.707107      q
 q94                   408.0000       0.707107      q
 q95                   405.0000       0.707107      q
 q96                   435.0000       0.707107      q
 q97                   417.0000       0.707107      q
 q98                   438.0000       0.707107      q
 q99                   390.0000       0.707107      q
 q100                  402.0000       0.707107      q
 q101                  394.0000       0.707107      q
 q102                  287.0000       0.707107      q
 q103                  299.0000       0.707107      q
 q104                  437.0000       0.707107      q
 q105                  564.0000       0.707107      q
 q106                  604.0000       0.707107      q
 q107                  620.0000       0.707107      q
 q108                  574.0000       0.707107      q
 q109                  524.0000       0.707107      q
 q110                  512.0000       0.707107      q
 q111                  459.0000       0.707107      q
 q112                  467.0000       0.707107      q
 q113                  461.0000       0.707107      q
 q114                  440.0000       0.707107      q
 q115                  437.0000       0.707107      q
 q116                  407.0000       0.707107      q
 q117                  412.0000       0.707107      q
 q118                  381.0000       0.707107      q
 q119                  410.0000       0.707107      q
 q120                  449.0000       0.707107      q
 q121                  457.0000       0.707107      q
 q122                  441.0000       0.707107      q
 q123                  474.0000       0.707107      q
 q124                  515.0000       0.707107      q
 q125                  496.0000       0.707107      q
 q126                  422.0000       0.707107      q
 q127                  453.0000       0.707107      q
 q128                  403.0000       0.707107      q
 q129                  488.0000       0.707107      q
 q130                  396.0000       0.707107      q
 q131                  407.0000       0.707107      q
 q132                  426.0000       0.707107      q
 q133                  413.0000       0.707107      q
 q134                  454.0000       0.707107      q
 q135                  455.0000       0.707107      q
 q136                  501.0000       0.707107      q
 q137                  468.0000       0.707107      q
 q138                  386.0000       0.707107      q
 q139                  410.0000       0.707107      q
 q140                  336.0000       0.707107      q
 q141                  338.0000       0.707107      q
 q142                  327.0000       0.707107      q
 q143                  315.0000       0.707107      q
 q144                  308.0000       0.707107      q
 q145                  303.0000       0.707107      q
 q146                  295.0000       0.707107      q
 q147                  310.0000       0.707107      q
 q148                  319.0000       0.707107      q
 q149                  340.0000       0.707107      q
 q150                  321.0000       0.707107      q
 q151                  344.0000       0.707107      q
 q152                  377.0000       0.707107      q
 q153                  367.0000       0.707107      q
 q154                  373.0000       0.707107      q
 q155                  382.0000       0.707107      q
 q156                  385.0000       0.707107      q
 q157                  391.0000       0.707107      q
 q158                  380.0000       0.707107      q
 q159                  370.0000       0.707107      q
 q160                  375.0000       0.707107      q
 q161                  362.0000       0.707107      q
 q162                  358.0000       0.707107      q
 q163                  358.0000       0.707107      q
 q164                  355.0000       0.707107      q
 q165                  354.0000       0.707107      q
 q166                  430.0000       0.707107      q
 q167                  410.0000       0.707107      q
 q168                  428.0000       0.707107      q
 q169                  521.0000       0.707107      q
 q170                  453.0000       0.707107      q
 q171                  427.0000       0.707107      q
 q172                  441.0000       0.707107      q
 q173                  452.0000       0.707107      q
 q174                  485.0000       0.707107      q
 q175                  516.0000       0.707107      q
 q176                  495.0000       0.707107      q
 q177                  591.0000       0.707107      q
 q178                  577.0000       0.707107      q
 q179                  620.0000       0.707107      q
 q180                  620.0000       0.707107      q
 q181                  608.0000       0.707107      q
 q182                  660.0000       0.707107      q
 q183                  739.0000       0.707107      q
 q184                  661.0000       0.707107      q
 q185                  559.0000       0.707107      q
 q186                  578.0000       0.707107      q
 q187                  574.0000       0.707107      q
 q188                  613.0000       0.707107      q
 q189                  569.0000       0.707107      q
 q190                  507.0000       0.707107      q
 q191                  535.0000       0.707107      q
 q192                  503.0000       0.707107      q
 q193                  504.0000       0.707107      q
 q194                  483.0000       0.707107      q
 q195                  464.0000       0.707107      q
 q196                  511.0000       0.707107      q
 q197                  552.0000       0.707107      q
 q198                  512.0000       0.707107      q
 q199                  570.0000       0.707107      q
 q200                  562.0000       0.707107      q
 q201                  620.0000       0.707107      q
 q202                  625.0000       0.707107      q
 q203                  802.0000       0.707107      q
 q204                  746.0000       0.707107      q
 q205                  739.0000       0.707107      q
 q206                  860.0000       0.707107      q
 q207                  934.0000       0.707107      q
 q208                  928.0000       0.707107      q
 q209                  962.0000       0.707107      q
 q210                  941.0000       0.707107      q
 q211                  917.0000       0.707107      q
 q212                  912.0000       0.707107      q
 q213                  983.0000       0.707107      q
 q214                  969.0000       0.707107      q
 q215                  896.0000       0.707107      q
 q216                  919.0000       0.707107      q
 q217                  942.0000       0.707107      q
 q218                  851.0000       0.707107      q
 q219                  821.0000       0.707107      q
 q220                  855.0000       0.707107      q
 q221                  880.0000       0.707107      q
 q222                  825.0000       0.707107      q
 q223                  851.0000       0.707107      q
 q224                  853.0000       0.707107      q
 q225                  916.0000       0.707107      q
 q226                  898.0000       0.707107      q
 q227                  890.0000       0.707107      q
 q228                  810.0000       0.707107      q
 q229                  750.0000       0.707107      q
 q230                  714.0000       0.707107      q
 q231                  638.0000       0.707107      q
 q232                  680.0000       0.707107      q
 q233                  766.0000       0.707107      q
 q234                  895.0000       0.707107      q
 q235                  892.0000       0.707107      q
 q236                  886.0000       0.707107      q
 q237                  911.0000       0.707107      q
 q238                  903.0000       0.707107      q
 q239                  899.0000       0.707107      q
 q240                  901.0000       0.707107      q
 q241                  886.0000       0.707107      q
 q242                  892.0000       0.707107      q
 q243                  869.0000       0.707107      q
 q244                  868.0000       0.707107      q
 q245                  837.0000       0.707107      q
 q246                  831.0000       0.707107      q
 q247                  810.0000       0.707107      q
 q248                  814.0000       0.707107      q
 q249                  816.0000       0.707107      q
 q250                  826.0000       0.707107      q
 q251                  854.0000       0.707107      q
 q252                  837.0000       0.707107      q
 q253                  830.0000       0.707107      q
 q254                  904.0000       0.707107      q
 q255                  945.0000       0.707107      q
 q256                  1030.000       0.707107      q
 q257                  1060.000       0.707107      q
 q258                  1150.000       0.707107      q
 q259                  1240.000       0.707107      q
 q260                  1610.000       0.707107      q
 q261                  1850.000       0.707107      q
 q262                  1860.000       0.707107      q
 q263                  1840.000       0.707107      q
 q264                  2050.000       0.707107      q
 q265                  2100.000       0.707107      q
 q270                  2190.000       0.707107      q
 q278                  2140.000       0.707107      q
 q279                  2040.000       0.707107      q
 q287                  2100.000       0.707107      q
 q288                  2080.000       0.707107      q
 q290                  2220.000       0.707107      q
 q293                  2260.000       0.707107      q
 q311                  2260.000       0.707107      q
 q318                  2100.000       0.707107      q
 q321                  2130.000       0.707107      q
 q324                  2090.000       0.707107      q
 q327                  2260.000       0.707107      q
 q330                  2260.000       0.707107      q
 q340                  2260.000       0.707107      q
 q341                  2080.000       0.707107      q
 q343                  2190.000       0.707107      q
 q345                  2220.000       0.707107      q
 q346                  2080.000       0.707107      q
 q347                  1960.000       0.707107      q
 q348                  2040.000       0.707107      q
 q349                  2090.000       0.707107      q
 q350                  2040.000       0.707107      q
 q351                  2040.000       0.707107      q
 q352                  2050.000       0.707107      q
 q355                  2080.000       0.707107      q
 q356                  1740.000       0.707107      q
 q357                  1650.000       0.707107      q
 q358                  1570.000       0.707107      q
 q359                  1560.000       0.707107      q
 q360                  1520.000       0.707107      q
 q361                  1450.000       0.707107      q
 q362                  1420.000       0.707107      q
 q363                  1400.000       0.707107      q
 q364                  1350.000       0.707107      q
 q365                  1280.000       0.707107      q
 q366                  1350.000       0.707107      q
 q367                  1360.000       0.707107      q
 q368                  1290.000       0.707107      q
 q369                  1240.000       0.707107      q
 q370                  1300.000       0.707107      q
 q371                  1410.000       0.707107      q
 q372                  1550.000       0.707107      q
 q373                  1550.000       0.707107      q
 q374                  1470.000       0.707107      q
 q375                  1360.000       0.707107      q
 q376                  1350.000       0.707107      q
 q377                  1330.000       0.707107      q
 q378                  1340.000       0.707107      q
 q379                  1380.000       0.707107      q
 q380                  1360.000       0.707107      q
 q381                  1340.000       0.707107      q
 q382                  1300.000       0.707107      q
 q383                  1270.000       0.707107      q
 q384                  1250.000       0.707107      q
 q385                  1240.000       0.707107      q
 q386                  1270.000       0.707107      q
 q387                  1280.000       0.707107      q
 q388                  1300.000       0.707107      q
 q389                  1290.000       0.707107      q
 q390                  1190.000       0.707107      q
 q391                  1140.000       0.707107      q
 q392                  1110.000       0.707107      q
 q393                  1100.000       0.707107      q
 q394                  1100.000       0.707107      q
 q395                  1060.000       0.707107      q
 q396                  1030.000       0.707107      q
 q397                  996.0000       0.707107      q
 q398                  1000.000       0.707107      q
 q399                  1040.000       0.707107      q
 q400                  1020.000       0.707107      q
 q401                  1060.000       0.707107      q
 q402                  1060.000       0.707107      q
 q403                  1070.000       0.707107      q
 q404                  1060.000       0.707107      q
 q405                  1100.000       0.707107      q
 q406                  1050.000       0.707107      q
 q407                  1010.000       0.707107      q
 q408                  1070.000       0.707107      q
 q409                  992.0000       0.707107      q
 q410                  962.0000       0.707107      q
 q411                  908.0000       0.707107      q
 q412                  923.0000       0.707107      q
 q413                  960.0000       0.707107      q
 q414                  985.0000       0.707107      q
 q415                  975.0000       0.707107      q
 q416                  1020.000       0.707107      q
 q417                  1040.000       0.707107      q
 q418                  973.0000       0.707107      q
 q419                  883.0000       0.707107      q
 q420                  894.0000       0.707107      q
 q421                  904.0000       0.707107      q
 q422                  961.0000       0.707107      q
 q423                  957.0000       0.707107      q
 q424                  985.0000       0.707107      q
 q425                  969.0000       0.707107      q
 q426                  932.0000       0.707107      q
 q427                  914.0000       0.707107      q
 q428                  936.0000       0.707107      q
 q429                  987.0000       0.707107      q
 q430                  971.0000       0.707107      q
 q431                  926.0000       0.707107      q
 q432                  937.0000       0.707107      q
 q433                  923.0000       0.707107      q
 q434                  926.0000       0.707107      q
 q435                  935.0000       0.707107      q
 q436                  925.0000       0.707107      q
 q437                  926.0000       0.707107      q
 q438                  959.0000       0.707107      q
 q439                  947.0000       0.707107      q
 q440                  943.0000       0.707107      q
 q441                  970.0000       0.707107      q
 q442                  972.0000       0.707107      q
 q443                  1050.000       0.707107      q
 q444                  1020.000       0.707107      q
 q445                  1010.000       0.707107      q
 q446                  1070.000       0.707107      q
 q447                  1260.000       0.707107      q
 q448                  1120.000       0.707107      q
 q449                  1000.000       0.707107      q
 q450                  989.0000       0.707107      q
 q451                  933.0000       0.707107      q
 q452                  940.0000       0.707107      q
 q453                  906.0000       0.707107      q
 q454                  896.0000       0.707107      q
 q455                  904.0000       0.707107      q
 q456                  907.0000       0.707107      q
 q457                  910.0000       0.707107      q
 q458                  929.0000       0.707107      q
 q459                  903.0000       0.707107      q
 q460                  902.0000       0.707107      q
 q461                  913.0000       0.707107      q
 q462                  904.0000       0.707107      q
 q463                  932.0000       0.707107      q
 q464                  897.0000       0.707107      q
 q465                  844.0000       0.707107      q
 q466                  820.0000       0.707107      q
 q467                  760.0000       0.707107      q
 q468                  764.0000       0.707107      q
 q469                  804.0000       0.707107      q
 q470                  838.0000       0.707107      q
 q471                  809.0000       0.707107      q
 q472                  798.0000       0.707107      q
 q473                  841.0000       0.707107      q
 q474                  831.0000       0.707107      q
 q475                  844.0000       0.707107      q
 q476                  834.0000       0.707107      q
 q477                  849.0000       0.707107      q
 q478                  853.0000       0.707107      q
 q479                  830.0000       0.707107      q
 q480                  814.0000       0.707107      q
 q481                  755.0000       0.707107      q
 q482                  748.0000       0.707107      q
 q483                  731.0000       0.707107      q
 q484                  695.0000       0.707107      q
 q485                  697.0000       0.707107      q
 q486                  729.0000       0.707107      q
 q487                  761.0000       0.707107      q
 q488                  751.0000       0.707107      q
 q489                  737.0000       0.707107      q
 q490                  743.0000       0.707107      q
 q491                  768.0000       0.707107      q
 q492                  873.0000       0.707107      q
 q493                  858.0000       0.707107      q
 q494                  874.0000       0.707107      q
 q495                  881.0000       0.707107      q
 q496                  852.0000       0.707107      q
 q497                  830.0000       0.707107      q
 q498                  846.0000       0.707107      q
 q499                  856.0000       0.707107      q
 q500                  866.0000       0.707107      q
 q501                  898.0000       0.707107      q
 q502                  930.0000       0.707107      q
 q503                  941.0000       0.707107      q
 q504                  897.0000       0.707107      q
 q505                  860.0000       0.707107      q
 q506                  860.0000       0.707107      q
 q507                  832.0000       0.707107      q
 q508                  834.0000       0.707107      q
 q509                  842.0000       0.707107      q
 q510                  855.0000       0.707107      q
 q511                  859.0000       0.707107      q
 q512                  860.0000       0.707107      q
 q513                  863.0000       0.707107      q
 q514                  836.0000       0.707107      q
 q515                  861.0000       0.707107      q
 q516                  800.0000       0.707107      q
 q517                  760.0000       0.707107      q
 q518                  700.0000       0.707107      q
 q519                  700.0000       0.707107      q
 q520                  689.0000       0.707107      q
 q521                  682.0000       0.707107      q
 q522                  739.0000       0.707107      q
 q523                  703.0000       0.707107      q
 q524                  688.0000       0.707107      q
 q525                  694.0000       0.707107      q
 q526                  728.0000       0.707107      q
 q527                  682.0000       0.707107      q
 q528                  686.0000       0.707107      q
 q529                  708.0000       0.707107      q
 q530                  720.0000       0.707107      q
 q531                  745.0000       0.707107      q
 q532                  735.0000       0.707107      q
 q533                  752.0000       0.707107      q
 q534                  694.0000       0.707107      q
 q535                  700.0000       0.707107      q
 q536                  709.0000       0.707107      q
 q537                  739.0000       0.707107      q
 q538                  747.0000       0.707107      q
 q539                  695.0000       0.707107      q
 q540                  629.0000       0.707107      q
 q541                  653.0000       0.707107      q
 q542                  698.0000       0.707107      q
 q543                  717.0000       0.707107      q
 q544                  732.0000       0.707107      q
 q545                  735.0000       0.707107      q
 q546                  819.0000       0.707107      q
 q547                  793.0000       0.707107      q