pcf
* control data
restart estimation
      48   12174      20      2      4
2    2 single point   1   0   0
10.0  -3  0.3  0.03  10  lamforgive derforgive
10.0  10.0  0.001
0.1  noaui
50  0.005  4  4  0.005  4
1  1  1  PARSAVEITN
* singular value decomposition
1
48 5E-06
1
* parameter groups
ddsd         relative 0.025  0.0  switch  2.0 parabolic 1.0e-4 0.5 smaller
ddsw         relative 0.025  0.0  switch  2.0 parabolic 1.0e-4 0.5 smaller
ddgd         relative 0.025  0.0  switch  2.0 parabolic 1.0e-4 0.5 smaller
ddgw         relative 0.025  0.0  switch  2.0 parabolic 1.0e-4 0.5 smaller
rcsd         relative 0.025  0.0  switch  2.0 parabolic 1.0e-4 0.5 smaller
rcsw         relative 0.025  0.0  switch  2.0 parabolic 1.0e-4 0.5 smaller
rcrd         relative 0.025  0.0  switch  2.0 parabolic 1.0e-4 0.5 smaller
rcrw         relative 0.025  0.0  switch  2.0 parabolic 1.0e-4 0.5 smaller
rcgd         relative 0.025  0.0  switch  2.0 parabolic 1.0e-4 0.5 smaller
rcgw         relative 0.025  0.0  switch  2.0 parabolic 1.0e-4 0.5 smaller
tl           relative 0.025  0.0  switch  2.0 parabolic 1.0e-4 0.5 smaller
xw           relative 0.025  0.0  switch  2.0 parabolic 1.0e-4 0.5 smaller
yw           relative 0.03  0.0  switch  2.0 parabolic 1.0e-4 0.5 smaller
x           relative 0.025  0.0  switch  2.0 parabolic 1.0e-4 0.5 smaller
y            relative 0.025  0.0  switch  2.0 parabolic 1.0e-4 0.5 smaller
tlr			 relative 0.5  0.0  switch  2.0 parabolic 1.0e-4 0.5 smaller
tls			 relative 0.5  0.0  switch  2.0 parabolic 1.0e-4 0.5 smaller
beta			 relative 0.025  0.0  switch  2.0 parabolic 1.0e-4 0.5 smaller
alpha			 relative 0.025  0.0  switch  2.0 parabolic 1.0e-4 0.5 smaller
tcrit			 relative 0.025  0.0  switch  2.0 parabolic 1.0e-4 0.5 smaller
* parameter data
ddsd	log	factor    1.366600      1.00e-01	2.1	ddsd	1	0	1
ddsw	log	factor   0.5858700      1.00e-01	2.1	ddsw	1	0	1
ddgd	log	factor   0.8269486      1.00e-05	2.1	ddgd	1	0	1
ddgw	log	factor   0.1825851      1.00e-05	2.1	ddgw	1	0	1
rcs1d	log	factor    1.000000      1.00e-05	2	rcsd	1	0	1
rcs1w	log	factor    1.000000      1.00e-05	2	rcsw	1	0	1
rcs2d	log	factor   5.9738616E-02  1.00e-05	2	rcsd	1	0	1
rcs2w	log	factor    1.000000      1.00e-05	2	rcsw	1	0	1
rcs3d	log	factor   5.2447726E-03  1.00e-05	2	rcsd	1	0	1
rcs3w	log	factor   4.3462033E-03  1.00e-05	2	rcsw	1	0	1
rcs4d	log	factor   1.8911064E-02  1.00e-05	2	rcsd	1	0	1
rcs4w	log	factor   0.2466128      1.00e-05	2	rcsw	1	0	1
rcs5d	log	factor   0.2821512      1.00e-05	2	rcsd	1	0	1
rcs5w	log	factor   0.9283397      1.00e-05	2	rcsw	1	0	1
rcs6d	log	factor   2.9318488E-02  1.00e-05	2	rcsd	1	0	1
rcs6w	log	factor   0.2107033      1.00e-05	2	rcsw	1	0	1
rcs7d	log	factor   4.8984751E-03  1.00e-05	2	rcsd	1	0	1
rcs7w	log	factor    1.000000      1.00e-05	2	rcsw	1	0	1
rcs8d	log	factor   0.4265100      1.00e-05	2	rcsd	1	0	1
rcs8w	log	factor   0.9199871      1.00e-05	2	rcsw	1	0	1
rcr1d	log	factor   4.7008231E-02  1.00e-05	2	rcrd	1	0	1
rcr1w	log	factor    1.985978      1.00e-05	2	rcrw	1	0	1
rcr2d	log	factor   0.5328189      1.00e-05	2	rcrd	1	0	1
rcr2w	log	factor   5.9819985E-03  1.00e-05	2	rcrw	1	0	1
rcr3d	log	factor   1.5673206E-03  1.00e-05	2	rcrd	1	0	1
rcr3w	log	factor   4.0730160E-03  1.00e-05	2	rcrw	1	0	1
rcr4d	log	factor   6.1966304E-04  1.00e-05	2	rcrd	1	0	1
rcr4w	log	factor   1.7524728E-03  1.00e-05	2	rcrw	1	0	1
rcr5d	log	factor   1.2300164E-03  1.00e-05	2	rcrd	1	0	1
rcr5w	log	factor   2.8602029E-03  1.00e-05	2	rcrw	1	0	1
rcr6d	log	factor   9.9210875E-03  1.00e-05	2	rcrd	1	0	1
rcr6w	log	factor   2.4507020E-02  1.00e-05	2	rcrw	1	0	1
rcr7d	log	factor   1.1610856E-02  1.00e-05	2	rcrd	1	0	1
rcr7w	log	factor   1.2189218E-02  1.00e-05	2	rcrw	1	0	1
rcr8d	log	factor   6.2358777E-03  1.00e-05	2	rcrd	1	0	1
rcr8w	log	factor   1.3220071E-02  1.00e-05	2	rcrw	1	0	1
rcgd	log	factor   2.0764615E-02  1.00e-05	2	rcgd	1	0	1
rcgw	log	factor   0.8674245      1.00e-05	2	rcgw	1	0	1
tl	log	factor    4.242145      1.00e-05	5	tl	1	0	1
xw	log	factor   0.9523951      1.00e-05	2.1	xw	1	0	1
yw	log	factor   2.5432844E-04  1.00e-05	1	yw	1	0	1
x	log	factor    1.156447      1.00e-05	2.3	x	1	0	1
y	log	factor   2.8469426E-02  1.00e-05	1	y	1	0	1
tlr	log	factor   6.8200000E-02  1.00e-05	10	tlr	1	0	1
tls	log	factor   0.2220000      1.00e-05	30	tls	1	0	1
beta	log	factor   0.1100000      1.00e-01	3e-01	beta	1	0	1
alpha	log	factor   0.6      6.00e-01	8e-01	alpha	1	0	1
tcrit	log	factor    .5      1.00e-05	2	tcrit	1	0	1
* observation groups
q
swe
regul_beta
regul_alpha
* observation data
q1	1650	0	q
q2	1570	0	q
q3	1510	0	q
q4	1480	0	q
q5	1490	0	q
q6	1480	0	q
q7	1440	0	q
q8	1450	0	q
q9	1420	0	q
q10	1320	0	q
q11	1310	0	q
q12	1310	0	q
q13	1330	0	q
q14	1380	0	q
q15	1460	0	q
q16	1590	0	q
q17	1610	0	q
q18	1490	0	q
q19	1330	0	q
q20	1340	0	q
q21	1310	0	q
q22	1290	0	q
q23	1280	0	q
q24	1150	0	q
q25	1110	0	q
q26	1180	0	q
q27	1210	0	q
q28	1200	0	q
q29	1260	0	q
q30	1250	0	q
q31	1260	0	q
q32	1200	0	q
q33	1190	0	q
q34	1210	0	q
q35	1230	0	q
q36	1240	0	q
q37	1260	0	q
q38	1190	0	q
q39	1180	0	q
q40	1110	0	q
q41	1230	0	q
q42	1450	0	q
q43	1500	0	q
q44	1610	0	q
q45	1610	0	q
q46	1630	0	q
q47	1600	0	q
q48	1610	0	q
q49	1500	0	q
q50	1490	0	q
q51	1420	0	q
q52	1490	0	q
q53	1440	0	q
q54	1420	0	q
q55	1650	0	q
q56	1540	0	q
q57	1450	0	q
q58	1260	0	q
q59	1230	0	q
q61	1360	0	q
q62	1420	0	q
q63	1470	0	q
q64	1440	0	q
q65	1480	0	q
q66	1380	0	q
q67	1290	0	q
q68	1270	0	q
q69	1240	0	q
q70	1230	0	q
q71	1200	0	q
q72	1180	0	q
q73	1170	0	q
q74	1210	0	q
q75	1170	0	q
q76	1190	0	q
q77	1180	0	q
q78	1170	0	q
q79	1180	0	q
q80	1130	0	q
q81	1120	0	q
q82	1210	0	q
q83	1240	0	q
q84	1230	0	q
q85	1240	0	q
q86	1220	0	q
q87	1220	0	q
q88	1240	0	q
q89	1210	0	q
q90	1210	0	q
q91	1230	0	q
q92	1240	0	q
q93	1250	0	q
q94	1450	0	q
q95	1350	0	q
q96	1300	0	q
q97	1300	0	q
q98	1230	0	q
q99	1210	0	q
q100	1170	0	q
q101	1130	0.707107	q
q102	1050	0.707107	q
q103	1030	0.707107	q
q104	1190	0.707107	q
q105	1420	0.707107	q
q106	1440	0.707107	q
q107	1330	0.707107	q
q108	1370	0.707107	q
q109	1330	0.707107	q
q110	1330	0.707107	q
q111	1310	0.707107	q
q112	1300	0.707107	q
q113	1290	0.707107	q
q114	1320	0.707107	q
q115	1290	0.707107	q
q116	1350	0.707107	q
q117	1380	0.707107	q
q118	1360	0.707107	q
q119	1390	0.707107	q
q120	1350	0.707107	q
q121	1410	0.707107	q
q122	1390	0.707107	q
q123	1410	0.707107	q
q124	1410	0.707107	q
q125	1270	0.707107	q
q126	1350	0.707107	q
q127	1360	0.707107	q
q128	1360	0.707107	q
q129	1350	0.707107	q
q130	1370	0.707107	q
q131	1340	0.707107	q
q132	1340	0.707107	q
q133	1390	0.707107	q
q134	1310	0.707107	q
q135	1400	0.707107	q
q136	1460	0.707107	q
q137	1400	0.707107	q
q138	1450	0.707107	q
q139	1460	0.707107	q
q140	1370	0.707107	q
q141	1360	0.707107	q
q142	1360	0.707107	q
q143	1330	0.707107	q
q144	1320	0.707107	q
q145	1300	0.707107	q
q146	1200	0.707107	q
q147	1350	0.707107	q
q148	1340	0.707107	q
q149	1340	0.707107	q
q150	1280	0.707107	q
q151	1270	0.707107	q
q152	1300	0.707107	q
q153	1290	0.707107	q
q154	1270	0.707107	q
q155	1280	0.707107	q
q156	1260	0.707107	q
q157	1260	0.707107	q
q158	1240	0.707107	q
q159	1220	0.707107	q
q160	1260	0.707107	q
q161	1260	0.707107	q
q162	1230	0.707107	q
q163	1220	0.707107	q
q164	1230	0.707107	q
q165	1090	0.707107	q
q166	1160	0.707107	q
q167	1010	0.707107	q
q168	1150	0.707107	q
q169	1310	0.707107	q
q170	1090	0.707107	q
q171	1270	0.707107	q
q172	1370	0.707107	q
q173	1540	0.707107	q
q174	1530	0.707107	q
q175	1500	0.707107	q
q176	827	0.707107	q
q177	1210	0.707107	q
q178	1510	0.707107	q
q179	1490	0.707107	q
q180	1380	0.707107	q
q181	1470	0.707107	q
q182	1570	0.707107	q
q183	1700	0.707107	q
q184	1550	0.707107	q
q185	1580	0.707107	q
q186	1610	0.707107	q
q187	1680	0.707107	q
q188	1700	0.707107	q
q189	1740	0.707107	q
q190	1770	0.707107	q
q191	1700	0.707107	q
q192	1740	0.707107	q
q193	1580	0.707107	q
q194	1700	0.707107	q
q195	1680	0.707107	q
q196	1730	0.707107	q
q197	1700	0.707107	q
q198	1750	0.707107	q
q199	1830	0.707107	q
q200	1770	0.707107	q
q201	1720	0.707107	q
q202	1800	0.707107	q
q203	1740	0.707107	q
q204	1710	0.707107	q
q205	1960	0.707107	q
q206	1910	0.707107	q
q207	1990	0.707107	q
q208	2120	0.707107	q
q209	2140	0.707107	q
q210	2160	0.707107	q
q211	2190	0.707107	q
q212	2220	0.707107	q
q213	2290	0.707107	q
q214	2360	0.707107	q
q215	2330	0.707107	q
q216	2330	0.707107	q
q217	2370	0.707107	q
q218	2310	0.707107	q
q219	2260	0.707107	q
q220	2300	0.707107	q
q221	2420	0.707107	q
q222	2500	0.707107	q
q223	2520	0.707107	q
q224	2560	0.707107	q
q225	2430	0.707107	q
q226	2390	0.707107	q
q227	2240	0.707107	q
q228	2160	0.707107	q
q229	2100	0.707107	q
q230	1990	0.707107	q
q231	2030	0.707107	q
q232	2130	0.707107	q
q233	2180	0.707107	q
q234	2240	0.707107	q
q235	2150	0.707107	q
q236	2100	0.707107	q
q237	2000	0.707107	q
q238	1920	0.707107	q
q239	1850	0.707107	q
q240	1860	0.707107	q
q241	1780	0.707107	q
q242	1770	0.707107	q
q243	1780	0.707107	q
q244	1720	0.707107	q
q245	1740	0.707107	q
q246	1780	0.707107	q
q247	1860	0.707107	q
q248	1920	0.707107	q
q249	1940	0.707107	q
q250	1930	0.707107	q
q251	2040	0.707107	q
q252	2160	0.707107	q
q253	2100	0.707107	q
q254	1680	0.707107	q
q255	1870	0.707107	q
q256	2250	0.707107	q
q257	2050	0.707107	q
q258	2130	0.707107	q
q259	2250	0.707107	q
q260	2330	0.707107	q
q261	2310	0.707107	q
q262	2260	0.707107	q
q263	2360	0.707107	q
q264	2350	0.707107	q
q265	2370	0.707107	q
q266	2410	0.707107	q
q267	3020	0.707107	q
q268	2950	0.707107	q
q269	2960	0.707107	q
q270	3050	0.707107	q
q271	3450	0.707107	q
q272	4010	0.707107	q
q273	4240	0.707107	q
q274	4560	0.707107	q
q275	4780	0.707107	q
q276	4870	0.707107	q
q277	4070	0.707107	q
q278	3690	0.707107	q
q279	3690	0.707107	q
q280	4090	0.707107	q
q281	4620	0.707107	q
q282	4850	0.707107	q
q283	4670	0.707107	q
q284	4190	0.707107	q
q285	3920	0.707107	q
q286	3630	0.707107	q
q287	3570	0.707107	q
q288	3860	0.707107	q
q289	4040	0.707107	q
q290	4170	0.707107	q
q291	4410	0.707107	q
q292	4780	0.707107	q
q293	4800	0.707107	q
q294	5130	0.707107	q
q295	5610	0.707107	q
q296	5870	0.707107	q
q297	5960	0.707107	q
q298	5560	0.707107	q
q299	5130	0.707107	q
q300	4670	0.707107	q
q301	4480	0.707107	q
q302	4640	0.707107	q
q303	4990	0.707107	q
q304	5150	0.707107	q
q305	4930	0.707107	q
q306	4720	0.707107	q
q307	4440	0.707107	q
q308	4390	0.707107	q
q309	4040	0.707107	q
q310	3710	0.707107	q
q311	3550	0.707107	q
q312	3680	0.707107	q
q313	3610	0.707107	q
q314	3440	0.707107	q
q315	3300	0.707107	q
q316	3220	0.707107	q
q317	3030	0.707107	q
q318	3040	0.707107	q
q319	3030	0.707107	q
q320	3050	0.707107	q
q321	3140	0.707107	q
q322	3330	0.707107	q
q323	3760	0.707107	q
q324	4280	0.707107	q
q325	4470	0.707107	q
q326	4590	0.707107	q
q327	5040	0.707107	q
q328	5250	0.707107	q
q329	5390	0.707107	q
q330	5580	0.707107	q
q331	5860	0.707107	q
q332	6060	0.707107	q
q333	6080	0.707107	q
q334	5880	0.707107	q
q335	5830	0.707107	q
q336	5740	0.707107	q
q337	5670	0.707107	q
q338	5540	0.707107	q
q339	5370	0.707107	q
q340	5090	0.707107	q
q341	4930	0.707107	q
q342	5220	0.707107	q
q343	5170	0.707107	q
q344	4840	0.707107	q
q345	4950	0.707107	q
q346	4940	0.707107	q
q347	4840	0.707107	q
q348	4760	0.707107	q
q349	4590	0.707107	q
q350	4490	0.707107	q
q351	4300	0.707107	q
q352	4310	0.707107	q
q353	4480	0.707107	q
q354	4620	0.707107	q
q355	4690	0.707107	q
q356	4680	0.707107	q
q357	4600	0.707107	q
q358	4550	0.707107	q
q359	4710	0.707107	q
q360	4560	0.707107	q
q361	4510	0.707107	q
q362	4380	0.707107	q
q363	4360	0.707107	q
q364	4190	0.707107	q
q365	4100	0.707107	q
q366	3930	0.707107	q
q367	3760	0.707107	q
q368	3700	0.707107	q
q369	3580	0.707107	q
q370	3520	0.707107	q
q371	3440	0.707107	q
q372	3460	0.707107	q
q373	3450	0.707107	q
q374	3430	0.707107	q
q375	3380	0.707107	q
q376	3380	0.707107	q
q377	3340	0.707107	q
q378	3410	0.707107	q
q379	3440	0.707107	q
q380	3250	0.707107	q
q381	3410	0.707107	q
q382	3340	0.707107	q
q383	3450	0.707107	q
q384	3440	0.707107	q
q385	3380	0.707107	q
q386	3290	0.707107	q
q387	3280	0.707107	q
q388	3190	0.707107	q
q389	3120	0.707107	q
q390	3100	0.707107	q
q391	2980	0.707107	q
q392	2950	0.707107	q
q393	2930	0.707107	q
q394	2780	0.707107	q
q395	2770	0.707107	q
q396	2900	0.707107	q
q397	2840	0.707107	q
q398	2930	0.707107	q
q399	2930	0.707107	q
q400	2940	0.707107	q
q401	2830	0.707107	q
q402	2850	0.707107	q
q403	2780	0.707107	q
q404	2600	0.707107	q
q405	2680	0.707107	q
q406	2610	0.707107	q
q407	2550	0.707107	q
q408	2490	0.707107	q
q409	2450	0.707107	q
q410	2450	0.707107	q
q411	2370	0.707107	q
q412	2260	0.707107	q
q413	2330	0.707107	q
q414	2700	0.707107	q
q415	2430	0.707107	q
q416	2530	0.707107	q
q417	2490	0.707107	q
q418	2440	0.707107	q
q419	2470	0.707107	q
q420	2450	0.707107	q
q421	2390	0.707107	q
q422	2370	0.707107	q
q423	2340	0.707107	q
q424	2340	0.707107	q
q425	2350	0.707107	q
q426	2350	0.707107	q
q427	2310	0.707107	q
q428	2320	0.707107	q
q429	2350	0.707107	q
q430	2360	0.707107	q
q431	2360	0.707107	q
q432	2360	0.707107	q
q433	2300	0.707107	q
q434	2230	0.707107	q
q435	2280	0.707107	q
q436	2290	0.707107	q
q437	2290	0.707107	q
q438	2240	0.707107	q
q439	2230	0.707107	q
q440	2220	0.707107	q
q441	2240	0.707107	q
q442	2240	0.707107	q
q443	2250	0.707107	q
q444	2240	0.707107	q
q445	2310	0.707107	q
q446	2950	0.707107	q
q447	2720	0.707107	q
q448	2490	0.707107	q
q449	2370	0.707107	q
q450	2330	0.707107	q
q451	2310	0.707107	q
q452	2340	0.707107	q
q453	2310	0.707107	q
q454	2270	0.707107	q
q455	2260	0.707107	q
q456	2240	0.707107	q
q457	2220	0.707107	q
q458	2230	0.707107	q
q459	2230	0.707107	q
q460	2170	0.707107	q
q461	2120	0.707107	q
q462	2240	0.707107	q
q463	2200	0.707107	q
q464	2100	0.707107	q
q465	2080	0.707107	q
q466	2010	0.707107	q
q467	2030	0.707107	q
q468	2000	0.707107	q
q469	2070	0.707107	q
q470	2160	0.707107	q
q471	2080	0.707107	q
q472	2060	0.707107	q
q473	1970	0.707107	q
q474	1900	0.707107	q
q475	1880	0.707107	q
q476	1870	0.707107	q
q477	1820	0.707107	q
q478	1900	0.707107	q
q479	2010	0.707107	q
q480	2020	0.707107	q
q481	1970	0.707107	q
q482	1960	0.707107	q
q483	1890	0.707107	q
q484	1880	0.707107	q
q485	1840	0.707107	q
q486	1850	0.707107	q
q487	2050	0.707107	q
q488	2070	0.707107	q
q489	2070	0.707107	q
q490	2080	0.707107	q
q491	2150	0.707107	q
q492	2340	0.707107	q
q493	2250	0.707107	q
q494	2150	0.707107	q
q495	2200	0.707107	q
q496	2110	0.707107	q
q497	2060	0.707107	q
q498	2120	0.707107	q
q499	2040	0.707107	q
q500	2050	0.707107	q
q501	2040	0.707107	q
q502	2130	0.707107	q
q503	2070	0.707107	q
q504	2110	0.707107	q
q505	2060	0.707107	q
q506	2030	0.707107	q
q507	2030	0.707107	q
q508	2080	0.707107	q
q509	2110	0.707107	q
q510	2120	0.707107	q
q511	2240	0.707107	q
q512	2300	0.707107	q
q513	2300	0.707107	q
q514	2300	0.707107	q
q515	2260	0.707107	q
q516	2300	0.707107	q
q517	2220	0.707107	q
q518	2320	0.707107	q
q519	2150	0.707107	q
q520	2380	0.707107	q
q521	2190	0.707107	q
q522	2250	0.707107	q
q523	2290	0.707107	q
q524	2310	0.707107	q
q525	2140	0.707107	q
q526	1950	0.707107	q
q527	1900	0.707107	q
q528	1890	0.707107	q
q529	1860	0.707107	q
q530	1810	0.707107	q
q531	1790	0.707107	q
q532	1760	0.707107	q
q533	1680	0.707107	q
q534	1670	0.707107	q
q535	1680	0.707107	q
q536	1680	0.707107	q
q537	1850	0.707107	q
q538	1830	0.707107	q
q539	1770	0.707107	q
q540	1720	0.707107	q
q541	1660	0.707107	q
q542	1830	0.707107	q
q543	1920	0.707107	q
q544	1860	0.707107	q
q545	1820	0.707107	q
q546	1820	0.707107	q
q547	1770	0.707107	q
q548	1790	0.707107	q
q549	1780	0.707107	q
q550	1820	0.707107	q
q551	1820	0.707107	q
q552	1730	0.707107	q
q553	1760	0.707107	q
q554	1750	0.707107	q
q555	1690	0.707107	q
q556	1580	0.707107	q
q557	1650	0.707107	q
q558	1810	0.707107	q
q559	1820	0.707107	q
q560	1790	0.707107	q
q561	1760	0.707107	q
q562	1760	0.707107	q
q563	1740	0.707107	q
q564	1560	0.707107	q
q565	1730	0.707107	q
q566	1380	0.707107	q
q567	1040	0.707107	q
q568	1760	0.707107	q
q569	2110	0.707107	q
q570	2020	0.707107	q
q571	2030	0.707107	q
q572	2000	0.707107	q
q573	1960	0.707107	q
q574	1980	0.707107	q
q575	1960	0.707107	q
q576	1870	0.707107	q
q577	1890	0.707107	q
q578	1840	0.707107	q
q579	1900	0.707107	q
q580	1910	0.707107	q
q581	1970	0.707107	q
q582	2090	0.707107	q
q583	2010	0.707107	q
q584	1910	0.707107	q
q585	1970	0.707107	q
q586	1970	0.707107	q
q587	2030	0.707107	q
q588	2100	0.707107	q
q589	2200	0.707107	q
q590	2240	0.707107	q
q591	2140	0.707107	q
q592	2200	0.707107	q
q593	2090	0.707107	q
q594	2100	0.707107	q
q595	2050	0.707107	q
q596	2000	0.707107	q
q597	1980	0.707107	q
q598	1990	0.707107	q
q599	2040	0.707107	q
q600	2140	0.707107	q
q601	2320	0.707107	q
q602	2420	0.707107	q
q603	2190	0.707107	q
q604	1960	0.707107	q
q605	2160	0.707107	q
q606	2330	0.707107	q
q607	2360	0.707107	q
q608	2310	0.707107	q
q609	2370	0.707107	q
q610	2410	0.707107	q
q611	2310	0.707107	q
q612	2340	0.707107	q
q613	2250	0.707107	q
q614	2330	0.707107	q
q615	2390	0.707107	q
q616	2470	0.707107	q
q617	2610	0.707107	q
q618	2590	0.707107	q
q619	2620	0.707107	q
q620	2930	0.707107	q
q621	2980	0.707107	q
q622	2670	0.707107	q
q623	2570	0.707107	q
q624	2440	0.707107	q
q625	2560	0.707107	q
q626	2960	0.707107	q
q627	2750	0.707107	q
q628	2730	0.707107	q
q629	2750	0.707107	q
q630	2900	0.707107	q
q631	2970	0.707107	q
q632	2800	0.707107	q
q633	2750	0.707107	q
q634	2610	0.707107	q
q635	2620	0.707107	q
q636	2550	0.707107	q
q637	2490	0.707107	q
q638	2450	0.707107	q
q639	2420	0.707107	q
q640	2340	0.707107	q
q641	2370	0.707107	q
q642	2450	0.707107	q
q643	2490	0.707107	q
q644	2770	0.707107	q
q645	2970	0.707107	q
q646	2900	0.707107	q
q647	2960	0.707107	q
q648	3330	0.707107	q
q649	3800	0.707107	q
q650	3790	0.707107	q
q651	4030	0.707107	q
q652	4240	0.707107	q
q653	4360	0.707107	q
q654	4400	0.707107	q
q655	4330	0.707107	q
q656	4590	0.707107	q
q657	4710	0.707107	q
q658	4670	0.707107	q
q659	4370	0.707107	q
q660	4230	0.707107	q
q661	4410	0.707107	q
q662	4530	0.707107	q
q663	4230	0.707107	q
q664	4430	0.707107	q
q665	4810	0.707107	q
q666	5240	0.707107	q
q667	4920	0.707107	q
q668	4470	0.707107	q
q669	4190	0.707107	q
q670	4310	0.707107	q
q671	4520	0.707107	q
q672	4970	0.707107	q
q673	5340	0.707107	q
q674	5520	0.707107	q
q675	5100	0.707107	q
q676	4580	0.707107	q
q677	4360	0.707107	q
q678	4050	0.707107	q
q679	3690	0.707107	q
q680	3460	0.707107	q
q681	3430	0.707107	q
q682	3750	0.707107	q
q683	3850	0.707107	q
q684	3970	0.707107	q
q685	3820	0.707107	q
q686	3840	0.707107	q
q687	3930	0.707107	q
q688	4270	0.707107	q
q689	4260	0.707107	q
q690	4360	0.707107	q
q691	4420	0.707107	q
q692	4410	0.707107	q
q693	4580	0.707107	q
q694	4480	0.707107	q
q695	4440	0.707107	q
q696	4370	0.707107	q
q697	4280	0.707107	q
q698	4210	0.707107	q
q699	4240	0.707107	q
q700	4240	0.707107	q
q701	4340	0.707107	q
q702	4500	0.707107	q
q703	4270	0.707107	q
q704	4000	0.707107	q
q705	3820	0.707107	q
q706	3870	0.707107	q
q707	3910	0.707107	q
q708	3980	0.707107	q
q709	4070	0.707107	q
q710	4080	0.707107	q
q711	3930	0.707107	q
q712	3890	0.707107	q
q713	3930	0.707107	q
q714	3840	0.707107	q
q715	3670	0.707107	q
q716	3740	0.707107	q
q717	3870	0.707107	q
q718	3910	0.707107	q
q719	3870	0.707107	q
q720	3830	0.707107	q
q721	3790	0.707107	q
q722	3650	0.707107	q
q723	3590	0.707107	q
q724	3760	0.707107	q
q725	4050	0.707107	q
q726	4210	0.707107	q
q727	4400	0.707107	q
q728	3970	0.707107	q
q729	3720	0.707107	q
q730	3650	0.707107	q
q731	3510	0.707107	q
q732	3500	0.707107	q
q733	3380	0.707107	q
q734	3290	0.707107	q
q735	3320	0.707107	q
q736	3300	0.707107	q
q737	3310	0.707107	q
q738	3300	0.707107	q
q739	3320	0.707107	q
q740	3190	0.707107	q
q741	3220	0.707107	q
q742	3190	0.707107	q
q743	3150	0.707107	q
q744	3100	0.707107	q
q745	3140	0.707107	q
q746	3110	0.707107	q
q747	2940	0.707107	q
q748	2830	0.707107	q
q749	2690	0.707107	q
q750	2600	0.707107	q
q751	2580	0.707107	q
q752	2510	0.707107	q
q753	2520	0.707107	q
q754	2510	0.707107	q
q755	2460	0.707107	q
q756	2430	0.707107	q
q757	2450	0.707107	q
q758	2360	0.707107	q
q759	2290	0.707107	q
q760	2190	0.707107	q
q761	2130	0.707107	q
q762	2140	0.707107	q
q763	2170	0.707107	q
q764	2240	0.707107	q
q765	2270	0.707107	q
q766	2260	0.707107	q
q767	2310	0.707107	q
q768	2450	0.707107	q
q769	2430	0.707107	q
q770	2420	0.707107	q
q771	2510	0.707107	q
q772	2490	0.707107	q
q773	2400	0.707107	q
q774	2350	0.707107	q
q775	2380	0.707107	q
q776	2470	0.707107	q
q777	2380	0.707107	q
q778	2330	0.707107	q
q779	2370	0.707107	q
q780	2370	0.707107	q
q781	2330	0.707107	q
q782	2360	0.707107	q
q783	2500	0.707107	q
q784	2400	0.707107	q
q785	2440	0.707107	q
q786	2400	0.707107	q
q787	2360	0.707107	q
q788	2410	0.707107	q
q789	2350	0.707107	q
q790	2310	0.707107	q
q791	2310	0.707107	q
q792	2340	0.707107	q
q793	2330	0.707107	q
q794	2190	0.707107	q
q795	2190	0.707107	q
q796	2160	0.707107	q
q797	2220	0.707107	q
q798	2270	0.707107	q
q799	2320	0.707107	q
q800	2400	0.707107	q
q801	2310	0.707107	q
q802	2350	0.707107	q
q803	2280	0.707107	q
q804	2280	0.707107	q
q805	2240	0.707107	q
q806	2270	0.707107	q
q807	2310	0.707107	q
q808	2210	0.707107	q
q809	2250	0.707107	q
q810	2220	0.707107	q
q811	2210	0.707107	q
q812	2230	0.707107	q
q813	2210	0.707107	q
q814	2160	0.707107	q
q815	2150	0.707107	q
q816	2160	0.707107	q
q817	2200	0.707107	q
q818	2240	0.707107	q
q819	2320	0.707107	q
q820	2370	0.707107	q
q821	2350	0.707107	q
q822	2350	0.707107	q
q823	2310	0.707107	q
q824	2300	0.707107	q
q825	2220	0.707107	q
q826	2180	0.707107	q
q827	2150	0.707107	q
q828	2120	0.707107	q
q829	2120	0.707107	q
q830	2080	0.707107	q
q831	2520	0.707107	q
q832	2400	0.707107	q
q833	2400	0.707107	q
q834	2350	0.707107	q
q835	2340	0.707107	q
q836	2390	0.707107	q
q837	2230	0.707107	q
q838	1930	0.707107	q
q839	1780	0.707107	q
q840	1750	0.707107	q
q841	1650	0.707107	q
q842	1670	0.707107	q
q843	1630	0.707107	q
q844	1680	0.707107	q
q845	1620	0.707107	q
q846	1650	0.707107	q
q847	1630	0.707107	q
q848	1680	0.707107	q
q849	1810	0.707107	q
q850	1750	0.707107	q
q851	1750	0.707107	q
q852	1730	0.707107	q
q853	1730	0.707107	q
q854	1780	0.707107	q
q855	1910	0.707107	q
q856	1960	0.707107	q
q857	1980	0.707107	q
q858	1930	0.707107	q
q859	1910	0.707107	q
q860	1860	0.707107	q
q861	1870	0.707107	q
q862	1970	0.707107	q
q863	1920	0.707107	q
q864	2110	0.707107	q
q865	2260	0.707107	q
q866	2330	0.707107	q
q867	2490	0.707107	q
q868	2420	0.707107	q
q869	2320	0.707107	q
q870	2260	0.707107	q
q871	2230	0.707107	q
q872	2270	0.707107	q
q873	2280	0.707107	q
q874	2250	0.707107	q
q875	2380	0.707107	q
q876	3290	0.707107	q
q877	5250	0.707107	q
q878	4770	0.707107	q
q879	4250	0.707107	q
q880	3630	0.707107	q
q881	3240	0.707107	q
q882	3030	0.707107	q
q883	2830	0.707107	q
q884	2790	0.707107	q
q885	2640	0.707107	q
q886	2540	0.707107	q
q887	1590	0.707107	q
q888	2620	0.707107	q
q889	2880	0.707107	q
q890	2830	0.707107	q
q891	2770	0.707107	q
q892	2680	0.707107	q
q893	2710	0.707107	q
q894	2810	0.707107	q
q895	2770	0.707107	q
q896	2690	0.707107	q
q897	2700	0.707107	q
q898	2720	0.707107	q
q899	2710	0.707107	q
q900	2620	0.707107	q
q901	2530	0.707107	q
q902	2570	0.707107	q
q903	2650	0.707107	q
q904	2550	0.707107	q
q905	2630	0.707107	q
q906	2790	0.707107	q
q907	3190	0.707107	q
q908	4080	0.707107	q
q909	3590	0.707107	q
q910	3380	0.707107	q
q911	2890	0.707107	q
q912	2770	0.707107	q
q913	2670	0.707107	q
q914	2730	0.707107	q
q915	2660	0.707107	q
q916	2390	0.707107	q
q917	2520	0.707107	q
q918	2530	0.707107	q
q919	2570	0.707107	q
q920	2600	0.707107	q
q921	2610	0.707107	q
q922	2580	0.707107	q
q923	2610	0.707107	q
q924	2630	0.707107	q
q925	2620	0.707107	q
q926	2730	0.707107	q
q927	2770	0.707107	q
q928	2900	0.707107	q
q929	2900	0.707107	q
q930	3000	0.707107	q
q931	3100	0.707107	q
q932	3090	0.707107	q
q933	2870	0.707107	q
q934	2900	0.707107	q
q935	1940	0.707107	q
q936	1880	0.707107	q
q937	3490	0.707107	q
q938	3610	0.707107	q
q939	3480	0.707107	q
q940	3570	0.707107	q
q941	3580	0.707107	q
q942	3320	0.707107	q
q943	3130	0.707107	q
q944	2990	0.707107	q
q945	3000	0.707107	q
q946	2970	0.707107	q
q947	2820	0.707107	q
q948	2830	0.707107	q
q949	2810	0.707107	q
q950	2770	0.707107	q
q951	2710	0.707107	q
q952	2760	0.707107	q
q953	3110	0.707107	q
q954	3750	0.707107	q
q955	4300	0.707107	q
q956	4770	0.707107	q
q957	5070	0.707107	q
q958	5140	0.707107	q
q959	5090	0.707107	q
q960	5100	0.707107	q
q961	4810	0.707107	q
q962	4480	0.707107	q
q963	4200	0.707107	q
q964	4020	0.707107	q
q965	3970	0.707107	q
q966	3750	0.707107	q
q967	3740	0.707107	q
q968	3790	0.707107	q
q969	3870	0.707107	q
q970	4120	0.707107	q
q971	4130	0.707107	q
q972	4000	0.707107	q
q973	4040	0.707107	q
q974	4000	0.707107	q
q975	4080	0.707107	q
q976	4370	0.707107	q
q977	4540	0.707107	q
q978	4780	0.707107	q
q979	4750	0.707107	q
q980	4640	0.707107	q
q981	4360	0.707107	q
q982	4200	0.707107	q
q983	4020	0.707107	q
q984	3930	0.707107	q
q985	3930	0.707107	q
q986	3940	0.707107	q
q987	4040	0.707107	q
q988	4210	0.707107	q
q989	4110	0.707107	q
q990	4060	0.707107	q
q991	3950	0.707107	q
q992	3780	0.707107	q
q993	3610	0.707107	q
q994	3470	0.707107	q
q995	3590	0.707107	q
q996	3850	0.707107	q
q997	3900	0.707107	q
q998	4530	0.707107	q
q999	5340	0.707107	q
q1000	6010	0.707107	q
q1001	6360	0.707107	q
q1002	6840	0.707107	q
q1003	6850	0.707107	q
q1004	6530	0.707107	q
q1005	6770	0.707107	q
q1006	7030	0.707107	q
q1007	6610	0.707107	q
q1008	6620	0.707107	q
q1009	6450	0.707107	q
q1010	6670	0.707107	q
q1011	6320	0.707107	q
q1012	6020	0.707107	q
q1013	6010	0.707107	q
q1014	6450	0.707107	q
q1015	6840	0.707107	q
q1016	7470	0.707107	q
q1017	8860	0.707107	q
q1018	10300	0.707107	q
q1019	11600	0.707107	q
q1020	12600	0.707107	q
q1021	13200	0.707107	q
q1022	13800	0.707107	q
q1023	13600	0.707107	q
q1024	11400	0.707107	q
q1025	9800	0.707107	q
q1026	8440	0.707107	q
q1027	7860	0.707107	q
q1028	7430	0.707107	q
q1029	7530	0.707107	q
q1030	7310	0.707107	q
q1031	7690	0.707107	q
q1032	8170	0.707107	q
q1033	8070	0.707107	q
q1034	7910	0.707107	q
q1035	8460	0.707107	q
q1036	9800	0.707107	q
q1037	10600	0.707107	q
q1038	10600	0.707107	q
q1039	10000	0.707107	q
q1040	9720	0.707107	q
q1041	9920	0.707107	q
q1042	9720	0.707107	q
q1043	9710	0.707107	q
q1044	9370	0.707107	q
q1045	8870	0.707107	q
q1046	8740	0.707107	q
q1047	9430	0.707107	q
q1048	10200	0.707107	q
q1049	11100	0.707107	q
q1050	12700	0.707107	q
q1051	14100	0.707107	q
q1052	14600	0.707107	q
q1053	14900	0.707107	q
q1054	14500	0.707107	q
q1055	14500	0.707107	q
q1056	14800	0.707107	q
q1057	15700	0.707107	q
q1058	17500	0.707107	q
q1059	19500	0.707107	q
q1060	19300	0.707107	q
q1061	18000	0.707107	q
q1062	18300	0.707107	q
q1063	19400	0.707107	q
q1064	18400	0.707107	q
q1065	18700	0.707107	q
q1066	17800	0.707107	q
q1067	17500	0.707107	q
q1068	17500	0.707107	q
q1069	16700	0.707107	q
q1070	16000	0.707107	q
q1071	16000	0.707107	q
q1072	16300	0.707107	q
q1073	16600	0.707107	q
q1074	16800	0.707107	q
q1075	16400	0.707107	q
q1076	16000	0.707107	q
q1077	15700	0.707107	q
q1078	15900	0.707107	q
q1079	16500	0.707107	q
q1080	17000	0.707107	q
q1081	15900	0.707107	q
q1082	15600	0.707107	q
q1083	16500	0.707107	q
q1084	16400	0.707107	q
q1085	16200	0.707107	q
q1086	15700	0.707107	q
q1087	15500	0.707107	q
q1088	15300	0.707107	q
q1089	15100	0.707107	q
q1090	15100	0.707107	q
q1091	15500	0.707107	q
q1092	15700	0.707107	q
q1093	15300	0.707107	q
q1094	15300	0.707107	q
q1095	15300	0.707107	q
q1096	15000	0.707107	q
q1097	14900	0.707107	q
q1098	14900	0.707107	q
q1099	14800	0.707107	q
q1100	14600	0.707107	q
q1101	14400	0.707107	q
q1102	14100	0.707107	q
q1103	14000	0.707107	q
q1104	13500	0.707107	q
q1105	13300	0.707107	q
q1106	12700	0.707107	q
q1107	12300	0.707107	q
q1108	12200	0.707107	q
q1109	12100	0.707107	q
q1110	12300	0.707107	q
q1111	12200	0.707107	q
q1112	12000	0.707107	q
q1113	11800	0.707107	q
q1114	11500	0.707107	q
q1115	11200	0.707107	q
q1116	11000	0.707107	q
q1117	10900	0.707107	q
q1118	10900	0.707107	q
q1119	10700	0.707107	q
q1120	10100	0.707107	q
q1121	9860	0.707107	q
q1122	9830	0.707107	q
q1123	9550	0.707107	q
q1124	9540	0.707107	q
q1125	9510	0.707107	q
q1126	9320	0.707107	q
q1127	9250	0.707107	q
q1128	9030	0.707107	q
q1129	9180	0.707107	q
q1130	8960	0.707107	q
q1131	8850	0.707107	q
q1132	8800	0.707107	q
q1133	8770	0.707107	q
q1134	8540	0.707107	q
q1135	8380	0.707107	q
q1136	8220	0.707107	q
q1137	7970	0.707107	q
q1138	7890	0.707107	q
q1139	7810	0.707107	q
q1140	7600	0.707107	q
q1141	7410	0.707107	q
q1142	7200	0.707107	q
q1143	7330	0.707107	q
q1144	7240	0.707107	q
q1145	7260	0.707107	q
q1146	7140	0.707107	q
q1147	7230	0.707107	q
q1148	7090	0.707107	q
q1149	7050	0.707107	q
q1150	6980	0.707107	q
q1151	6910	0.707107	q
q1152	6910	0.707107	q
q1153	6830	0.707107	q
q1154	6720	0.707107	q
q1155	6420	0.707107	q
q1156	6450	0.707107	q
q1157	6500	0.707107	q
q1158	6440	0.707107	q
q1159	6230	0.707107	q
q1160	6140	0.707107	q
q1161	6190	0.707107	q
q1162	6300	0.707107	q
q1163	6220	0.707107	q
q1164	6060	0.707107	q
q1165	6000	0.707107	q
q1166	5920	0.707107	q
q1167	5840	0.707107	q
q1168	5790	0.707107	q
q1169	5440	0.707107	q
q1170	5180	0.707107	q
q1171	5100	0.707107	q
q1172	5020	0.707107	q
q1173	5060	0.707107	q
q1174	5080	0.707107	q
q1175	4960	0.707107	q
q1176	4850	0.707107	q
q1177	4940	0.707107	q
q1178	4920	0.707107	q
q1179	4930	0.707107	q
q1180	4720	0.707107	q
q1181	4690	0.707107	q
q1182	4690	0.707107	q
q1183	4610	0.707107	q
q1184	4630	0.707107	q
q1185	4650	0.707107	q
q1186	4500	0.707107	q
q1187	4480	0.707107	q
q1188	4400	0.707107	q
q1189	4360	0.707107	q
q1190	4500	0.707107	q
q1191	4530	0.707107	q
q1192	4470	0.707107	q
q1193	4240	0.707107	q
q1194	4230	0.707107	q
q1195	4250	0.707107	q
q1196	4200	0.707107	q
q1197	4190	0.707107	q
q1198	4110	0.707107	q
q1199	4110	0.707107	q
q1200	4100	0.707107	q
q1201	4220	0.707107	q
q1202	4290	0.707107	q
q1203	4380	0.707107	q
q1204	4310	0.707107	q
q1205	4410	0.707107	q
q1206	4270	0.707107	q
q1207	4330	0.707107	q
q1208	4350	0.707107	q
q1209	4340	0.707107	q
q1210	4350	0.707107	q
q1211	4270	0.707107	q
q1212	4250	0.707107	q
q1213	4210	0.707107	q
q1214	4170	0.707107	q
q1215	4030	0.707107	q
q1216	3980	0.707107	q
q1217	3990	0.707107	q
q1218	3950	0.707107	q
q1219	3930	0.707107	q
q1220	3840	0.707107	q
q1221	3850	0.707107	q
q1222	3800	0.707107	q
q1223	3750	0.707107	q
q1224	3760	0.707107	q
q1225	3600	0.707107	q
q1226	3610	0.707107	q
q1227	3470	0.707107	q
q1228	3470	0.707107	q
q1229	3470	0.707107	q
q1230	3380	0.707107	q
q1231	3350	0.707107	q
q1232	3300	0.707107	q
q1233	3270	0.707107	q
q1234	3320	0.707107	q
q1235	3290	0.707107	q
q1236	3360	0.707107	q
q1237	2030	0.707107	q