pcf
* control data
restart estimation
46    11050      18       0       2
2    2 single point   1   0   0
10.0  -3  0.3  0.03  10  lamforgive derforgive
10.0  10.0  0.001
0.1  noaui
   50  0.005  4  4  0.005  4
1  1  1  PARSAVEITN
* singular value decomposition
1
46 5E-06
1
* parameter groups
ddsd         relative 0.025  0.0  switch  2.0 parabolic 1.0e-4 0.5 smaller
ddsw         relative 0.025  0.0  switch  2.0 parabolic 1.0e-4 0.5 smaller
ddgd         relative 0.025  0.0  switch  2.0 parabolic 1.0e-4 0.5 smaller
ddgw         relative 0.025  0.0  switch  2.0 parabolic 1.0e-4 0.5 smaller
rcsd         relative 0.025  0.0  switch  2.0 parabolic 1.0e-4 0.5 smaller
rcsw         relative 0.025  0.0  switch  2.0 parabolic 1.0e-4 0.5 smaller
rcrd         relative 0.025  0.0  switch  2.0 parabolic 1.0e-4 0.5 smaller
rcrw         relative 0.025  0.0  switch  2.0 parabolic 1.0e-4 0.5 smaller
rcgd         relative 0.025  0.0  switch  2.0 parabolic 1.0e-4 0.5 smaller
rcgw         relative 0.025  0.0  switch  2.0 parabolic 1.0e-4 0.5 smaller
tl           relative 0.025  0.0  switch  2.0 parabolic 1.0e-4 0.5 smaller
xw           relative 0.025  0.0  switch  2.0 parabolic 1.0e-4 0.5 smaller
yw           relative 0.03  0.0  switch  2.0 parabolic 1.0e-4 0.5 smaller
x           relative 0.025  0.0  switch  2.0 parabolic 1.0e-4 0.5 smaller
y            relative 0.025  0.0  switch  2.0 parabolic 1.0e-4 0.5 smaller
tlr			 relative 0.5  0.0  switch  2.0 parabolic 1.0e-4 0.5 smaller
tls			 relative 0.5  0.0  switch  2.0 parabolic 1.0e-4 0.5 smaller
beta			 relative 0.025  0.0  switch  2.0 parabolic 1.0e-4 0.5 smaller
* parameter data
ddsd	log	factor   0.3360900      1.00e-01	2.1	ddsd	1	0	1
ddsw	log	factor   0.8710300      1.00e-01	2.1	ddsw	1	0	1
ddgd	log	factor   0.8733922      1.00e-08	1.1	ddgd	1	0	1
ddgw	log	factor   7.4747865E-02  1.00e-08	1.1	ddgw	1	0	1
rcs1d	log	factor   0.3080178      1.00e-08	1	rcsd	1	0	1
rcs1w	log	factor   0.5728968      1.00e-08	1	rcsw	1	0	1
rcs2d	log	factor   0.6451495      1.00e-08	1	rcsd	1	0	1
rcs2w	log	factor    1.000000      1.00e-08	1	rcsw	1	0	1
rcs3d	log	factor   9.5559882E-02  1.00e-08	1	rcsd	1	0	1
rcs3w	log	factor   0.9729521      1.00e-08	1	rcsw	1	0	1
rcs4d	log	factor   1.8911064E-02  1.00e-08	1	rcsd	1	0	1
rcs4w	log	factor   0.2466128      1.00e-08	1	rcsw	1	0	1
rcs5d	log	factor   1.6921434E-02  1.00e-08	1	rcsd	1	0	1
rcs5w	log	factor   0.1452045      1.00e-08	1	rcsw	1	0	1
rcs6d	log	factor   1.3719932E-02  1.00e-08	1	rcsd	1	0	1
rcs6w	log	factor   5.4964218E-02  1.00e-08	1	rcsw	1	0	1
rcs7d	log	factor   4.7759340E-03  1.00e-08	1	rcsd	1	0	1
rcs7w	log	factor    1.000000      1.00e-08	1	rcsw	1	0	1
rcs8d	log	factor   0.4265131      1.00e-08	1	rcsd	1	0	1
rcs8w	log	factor   0.9199871      1.00e-08	1	rcsw	1	0	1
rcr1d	log	factor   5.3870689E-02  1.00e-08	1	rcrd	1	0	1
rcr1w	log	factor   0.1040280      1.00e-08	1	rcrw	1	0	1
rcr2d	log	factor   0.4681088      1.00e-08	1	rcrd	1	0	1
rcr2w	log	factor    1.000000      1.00e-08	1	rcrw	1	0	1
rcr3d	log	factor   6.4997515E-02  1.00e-08	1	rcrd	1	0	1
rcr3w	log	factor   0.6203708      1.00e-08	1	rcrw	1	0	1
rcr4d	log	factor   2.2387906E-02  1.00e-08	1	rcrd	1	0	1
rcr4w	log	factor   0.1654679      1.00e-08	1	rcrw	1	0	1
rcr5d	log	factor   1.0704311E-02  1.00e-08	1	rcrd	1	0	1
rcr5w	log	factor   8.4064740E-02  1.00e-08	1	rcrw	1	0	1
rcr6d	log	factor   2.0269567E-02  1.00e-08	1	rcrd	1	0	1
rcr6w	log	factor   4.4612486E-02  1.00e-08	1	rcrw	1	0	1
rcr7d	log	factor   1.2651024E-02  1.00e-08	1	rcrd	1	0	1
rcr7w	log	factor   1.2726639E-02  1.00e-08	1	rcrw	1	0	1
rcr8d	log	factor   6.2367044E-03  1.00e-08	1	rcrd	1	0	1
rcr8w	log	factor   1.3221943E-02  1.00e-08	1	rcrw	1	0	1
rcgd	log	factor   2.1930811E-02  1.00e-08	1	rcgd	1	0	1
rcgw	log	factor   0.3551119      1.00e-08	1	rcgw	1	0	1
tl	log	factor    5.000000      1.00e-08	5	tl	1	0	1
xw	log	factor   0.9523951      1.00e-08	2.1	xw	1	0	1
yw	log	factor   2.5432844E-04  1.00e-08	1	yw	1	0	1
x	log	factor    1.156447      1.00e-08	2.3	x	1	0	1
y	log	factor   2.8469426E-02  1.00e-08	1	y	1	0	1
tlr	log	factor   6.8200000E-02  1.00e-08	10	tlr	1	0	1
tls	log	factor   0.2220000      1.00e-08	30	tls	1	0	1
beta	log	factor   0.5100000      2.00e-01	5.1e-01	beta	1	0	1
* observation groups
q
swe
* observation data
q1 1650.0 1.0 q
q2 1570.0 1.0 q
q3 1510.0 1.0 q
q4 1480.0 1.0 q
q5 1490.0 1.0 q
q6 1480.0 1.0 q
q7 1440.0 1.0 q
q8 1450.0 1.0 q
q9 1420.0 1.0 q
q10 1320.0 1.0 q
q11 1310.0 1.0 q
q12 1310.0 1.0 q
q13 1330.0 1.0 q
q14 1380.0 1.0 q
q15 1460.0 1.0 q
q16 1590.0 1.0 q
q17 1610.0 1.0 q
q18 1490.0 1.0 q
q19 1330.0 1.0 q
q20 1340.0 1.0 q
q21 1310.0 1.0 q
q22 1290.0 1.0 q
q23 1280.0 1.0 q
q26 1180.0 1.0 q
q27 1210.0 1.0 q
q28 1200.0 1.0 q
q29 1260.0 1.0 q
q30 1250.0 1.0 q
q31 1260.0 1.0 q
q32 1200.0 1.0 q
q33 1190.0 1.0 q
q34 1210.0 1.0 q
q35 1230.0 1.0 q
q36 1240.0 1.0 q
q37 1260.0 1.0 q
q38 1190.0 1.0 q
q41 1230.0 1.0 q
q42 1450.0 1.0 q
q43 1500.0 1.0 q
q44 1610.0 1.0 q
q45 1610.0 1.0 q
q46 1630.0 1.0 q
q47 1600.0 1.0 q
q48 1610.0 1.0 q
q49 1500.0 1.0 q
q50 1490.0 1.0 q
q51 1420.0 1.0 q
q52 1490.0 1.0 q
q53 1440.0 1.0 q
q54 1420.0 1.0 q
q55 1650.0 1.0 q
q56 1540.0 1.0 q
q57 1450.0 1.0 q
q58 1260.0 1.0 q
q59 1230.0 1.0 q
q61 1360.0 1.0 q
q62 1420.0 1.0 q
q63 1470.0 1.0 q
q64 1440.0 1.0 q
q65 1480.0 1.0 q
q66 1380.0 1.0 q
q67 1290.0 1.0 q
q68 1270.0 1.0 q
q69 1240.0 1.0 q
q70 1230.0 1.0 q
q71 1200.0 1.0 q
q72 1180.0 1.0 q
q73 1170.0 1.0 q
q74 1210.0 1.0 q
q75 1170.0 1.0 q
q76 1190.0 1.0 q
q77 1180.0 1.0 q
q78 1170.0 1.0 q
q79 1180.0 1.0 q
q82 1210.0 1.0 q
q83 1240.0 1.0 q
q84 1230.0 1.0 q
q85 1240.0 1.0 q
q86 1220.0 1.0 q
q87 1220.0 1.0 q
q88 1240.0 1.0 q
q89 1210.0 1.0 q
q90 1210.0 1.0 q
q91 1230.0 1.0 q
q92 1240.0 1.0 q
q93 1250.0 1.0 q
q94 1450.0 1.0 q
q95 1350.0 1.0 q
q96 1300.0 1.0 q
q97 1300.0 1.0 q
q98 1230.0 1.0 q
q99 1210.0 1.0 q
q100 1170.0 1.0 q
q104 1190.0 1.0 q
q105 1420.0 1.0 q
q106 1440.0 1.0 q
q107 1330.0 1.0 q
q108 1370.0 1.0 q
q109 1330.0 1.0 q
q110 1330.0 1.0 q
q111 1310.0 1.0 q
q112 1300.0 1.0 q
q113 1290.0 1.0 q
q114 1320.0 1.0 q
q115 1290.0 1.0 q
q116 1350.0 1.0 q
q117 1380.0 1.0 q
q118 1360.0 1.0 q
q119 1390.0 1.0 q
q120 1350.0 1.0 q
q121 1410.0 1.0 q
q122 1390.0 1.0 q
q123 1410.0 1.0 q
q124 1410.0 1.0 q
q125 1270.0 1.0 q
q126 1350.0 1.0 q
q127 1360.0 1.0 q
q128 1360.0 1.0 q
q129 1350.0 1.0 q
q130 1370.0 1.0 q
q131 1340.0 1.0 q
q132 1340.0 1.0 q
q133 1390.0 1.0 q
q134 1310.0 1.0 q
q135 1400.0 1.0 q
q136 1460.0 1.0 q
q137 1400.0 1.0 q
q138 1450.0 1.0 q
q139 1460.0 1.0 q
q140 1370.0 1.0 q
q141 1360.0 1.0 q
q142 1360.0 1.0 q
q143 1330.0 1.0 q
q144 1320.0 1.0 q
q145 1300.0 1.0 q
q146 1200.0 1.0 q
q147 1350.0 1.0 q
q148 1340.0 1.0 q
q149 1340.0 1.0 q
q150 1280.0 1.0 q
q151 1270.0 1.0 q
q152 1300.0 1.0 q
q153 1290.0 1.0 q
q154 1270.0 1.0 q
q155 1280.0 1.0 q
q156 1260.0 1.0 q
q157 1260.0 1.0 q
q158 1240.0 1.0 q
q159 1220.0 1.0 q
q160 1260.0 1.0 q
q161 1260.0 1.0 q
q162 1230.0 1.0 q
q163 1220.0 1.0 q
q164 1230.0 1.0 q
q165 1090.0 1.0 q
q166 1160.0 1.0 q
q168 1150.0 1.0 q
q169 1310.0 1.0 q
q170 1090.0 1.0 q
q171 1270.0 1.0 q
q172 1370.0 1.0 q
q173 1540.0 1.0 q
q174 1530.0 1.0 q
q175 1500.0 1.0 q
q177 1210.0 1.0 q
q178 1510.0 1.0 q
q179 1490.0 1.0 q
q180 1380.0 1.0 q
q181 1470.0 1.0 q
q182 1570.0 1.0 q
q183 1700.0 1.0 q
q184 1550.0 1.0 q
q185 1580.0 1.0 q
q186 1610.0 1.0 q
q187 1680.0 1.0 q
q188 1700.0 1.0 q
q189 1740.0 1.0 q
q190 1770.0 1.0 q
q191 1700.0 1.0 q
q192 1740.0 1.0 q
q193 1580.0 1.0 q
q194 1700.0 1.0 q
q195 1680.0 1.0 q
q196 1730.0 1.0 q
q197 1700.0 1.0 q
q198 1750.0 1.0 q
q199 1830.0 1.0 q
q200 1770.0 1.0 q
q201 1720.0 1.0 q
q202 1800.0 1.0 q
q203 1740.0 1.0 q
q204 1710.0 1.0 q
q205 1960.0 1.0 q
q206 1910.0 1.0 q
q207 1990.0 1.0 q
q208 2120.0 1.0 q
q209 2140.0 1.0 q
q210 2160.0 1.0 q
q211 2190.0 1.0 q
q212 2220.0 1.0 q
q213 2290.0 1.0 q
q214 2360.0 1.0 q
q215 2330.0 1.0 q
q216 2330.0 1.0 q
q217 2370.0 1.0 q
q218 2310.0 1.0 q
q219 2260.0 1.0 q
q220 2300.0 1.0 q
q221 2420.0 1.0 q
q222 2500.0 1.0 q
q223 2520.0 1.0 q
q224 2560.0 1.0 q
q225 2430.0 1.0 q
q226 2390.0 1.0 q
q227 2240.0 1.0 q
q228 2160.0 1.0 q
q229 2100.0 1.0 q
q230 1990.0 1.0 q
q231 2029.9999999999998 1.0 q
q232 2130.0 1.0 q
q233 2180.0 1.0 q
q234 2240.0 1.0 q
q235 2150.0 1.0 q
q236 2100.0 1.0 q
q237 2000.0 1.0 q
q238 1920.0 1.0 q
q239 1850.0 1.0 q
q240 1860.0 1.0 q
q241 1780.0 1.0 q
q242 1770.0 1.0 q
q243 1780.0 1.0 q
q244 1720.0 1.0 q
q245 1740.0 1.0 q
q246 1780.0 1.0 q
q247 1860.0 1.0 q
q248 1920.0 1.0 q
q249 1940.0 1.0 q
q250 1930.0 1.0 q
q251 2040.0 1.0 q
q252 2160.0 1.0 q
q253 2100.0 1.0 q
q255 1870.0 1.0 q
q256 2250.0 1.0 q
q257 2050.0 1.0 q
q258 2130.0 1.0 q
q259 2250.0 1.0 q
q260 2330.0 1.0 q
q261 2310.0 1.0 q
q262 2260.0 1.0 q
q263 2360.0 1.0 q
q264 2350.0 1.0 q
q265 2370.0 1.0 q
q266 2410.0 1.0 q
q267 3020.0 1.0 q
q268 2950.0 1.0 q
q269 2960.0 1.0 q
q270 3050.0 1.0 q
q271 3450.0 1.0 q
q272 4010.0 1.0 q
q273 4240.0 1.0 q
q274 4560.0 1.0 q
q275 4780.0 1.0 q
q276 4870.0 1.0 q
q277 4070.0000000000005 1.0 q
q278 3690.0 1.0 q
q279 3690.0 1.0 q
q280 4090.0 1.0 q
q281 4620.0 1.0 q
q282 4850.0 1.0 q
q283 4670.0 1.0 q
q284 4190.0 1.0 q
q285 3920.0 1.0 q
q286 3630.0 1.0 q
q287 3570.0 1.0 q
q288 3860.0 1.0 q
q289 4040.0 1.0 q
q290 4170.0 1.0 q
q291 4410.0 1.0 q
q292 4780.0 1.0 q
q293 4800.0 1.0 q
q294 5130.0 1.0 q
q295 5610.0 1.0 q
q296 5870.0 1.0 q
q297 5960.0 1.0 q
q298 5560.0 1.0 q
q299 5130.0 1.0 q
q300 4670.0 1.0 q
q301 4480.0 1.0 q
q302 4640.0 1.0 q
q303 4990.0 1.0 q
q304 5150.0 1.0 q
q305 4930.0 1.0 q
q306 4720.0 1.0 q
q307 4440.0 1.0 q
q308 4390.0 1.0 q
q309 4040.0 1.0 q
q310 3710.0 1.0 q
q311 3550.0 1.0 q
q312 3680.0 1.0 q
q313 3610.0 1.0 q
q314 3440.0 1.0 q
q315 3300.0 1.0 q
q316 3220.0 1.0 q
q317 3030.0 1.0 q
q318 3040.0 1.0 q
q319 3030.0 1.0 q
q320 3050.0 1.0 q
q321 3140.0 1.0 q
q322 3330.0 1.0 q
q323 3760.0 1.0 q
q324 4280.0 1.0 q
q325 4470.0 1.0 q
q326 4590.0 1.0 q
q327 5040.0 1.0 q
q328 5250.0 1.0 q
q329 5390.0 1.0 q
q330 5580.0 1.0 q
q331 5860.0 1.0 q
q332 6060.0 1.0 q
q333 6080.0 1.0 q
q334 5880.0 1.0 q
q335 5830.0 1.0 q
q336 5740.0 1.0 q
q337 5670.0 1.0 q
q338 5540.0 1.0 q
q339 5370.0 1.0 q
q340 5090.0 1.0 q
q341 4930.0 1.0 q
q342 5220.0 1.0 q
q343 5170.0 1.0 q
q344 4840.0 1.0 q
q345 4950.0 1.0 q
q346 4940.0 1.0 q
q347 4840.0 1.0 q
q348 4760.0 1.0 q
q349 4590.0 1.0 q
q350 4490.0 1.0 q
q351 4300.0 1.0 q
q352 4310.0 1.0 q
q353 4480.0 1.0 q
q354 4620.0 1.0 q
q355 4690.0 1.0 q
q356 4680.0 1.0 q
q357 4600.0 1.0 q
q358 4550.0 1.0 q
q359 4710.0 1.0 q
q360 4560.0 1.0 q
q361 4510.0 1.0 q
q362 4380.0 1.0 q
q363 4360.0 1.0 q
q364 4190.0 1.0 q
q365 4100.0 1.0 q
q366 3930.0 1.0 q
q367 3760.0 1.0 q
q368 3700.0 1.0 q
q369 3580.0 1.0 q
q370 3520.0 1.0 q
q371 3440.0 1.0 q
q372 3460.0 1.0 q
q373 3450.0 1.0 q
q374 3430.0 1.0 q
q375 3380.0 1.0 q
q376 3380.0 1.0 q
q377 3340.0 1.0 q
q378 3410.0 1.0 q
q379 3440.0 1.0 q
q380 3250.0 1.0 q
q381 3410.0 1.0 q
q382 3340.0 1.0 q
q383 3450.0 1.0 q
q384 3440.0 1.0 q
q385 3380.0 1.0 q
q386 3290.0 1.0 q
q387 3280.0 1.0 q
q388 3190.0 1.0 q
q389 3120.0 1.0 q
q390 3100.0 1.0 q
q391 2980.0 1.0 q
q392 2950.0 1.0 q
q393 2930.0 1.0 q
q394 2780.0 1.0 q
q395 2770.0 1.0 q
q396 2900.0 1.0 q
q397 2840.0 1.0 q
q398 2930.0 1.0 q
q399 2930.0 1.0 q
q400 2940.0 1.0 q
q401 2830.0 1.0 q
q402 2850.0 1.0 q
q403 2780.0 1.0 q
q404 2600.0 1.0 q
q405 2680.0 1.0 q
q406 2610.0 1.0 q
q407 2550.0 1.0 q
q408 2490.0 1.0 q
q409 2450.0 1.0 q
q410 2450.0 1.0 q
q411 2370.0 1.0 q
q412 2260.0 1.0 q
q413 2330.0 1.0 q
q414 2700.0 1.0 q
q415 2430.0 1.0 q
q416 2530.0 1.0 q
q417 2490.0 1.0 q
q418 2440.0 1.0 q
q419 2470.0 1.0 q
q420 2450.0 1.0 q
q421 2390.0 1.0 q
q422 2370.0 1.0 q
q423 2340.0 1.0 q
q424 2340.0 1.0 q
q425 2350.0 1.0 q
q426 2350.0 1.0 q
q427 2310.0 1.0 q
q428 2320.0 1.0 q
q429 2350.0 1.0 q
q430 2360.0 1.0 q
q431 2360.0 1.0 q
q432 2360.0 1.0 q
q433 2300.0 1.0 q
q434 2230.0 1.0 q
q435 2280.0 1.0 q
q436 2290.0 1.0 q
q437 2290.0 1.0 q
q438 2240.0 1.0 q
q439 2230.0 1.0 q
q440 2220.0 1.0 q
q441 2240.0 1.0 q
q442 2240.0 1.0 q
q443 2250.0 1.0 q
q444 2240.0 1.0 q
q445 2310.0 1.0 q
q446 2950.0 1.0 q
q447 2720.0 1.0 q
q448 2490.0 1.0 q
q449 2370.0 1.0 q
q450 2330.0 1.0 q
q451 2310.0 1.0 q
q452 2340.0 1.0 q
q453 2310.0 1.0 q
q454 2270.0 1.0 q
q455 2260.0 1.0 q
q456 2240.0 1.0 q
q457 2220.0 1.0 q
q458 2230.0 1.0 q
q459 2230.0 1.0 q
q460 2170.0 1.0 q
q461 2120.0 1.0 q
q462 2240.0 1.0 q
q463 2200.0 1.0 q
q464 2100.0 1.0 q
q465 2080.0 1.0 q
q466 2009.9999999999998 1.0 q
q467 2029.9999999999998 1.0 q
q468 2000.0 1.0 q
q469 2070.0 1.0 q
q470 2160.0 1.0 q
q471 2080.0 1.0 q
q472 2060.0 1.0 q
q473 1970.0 1.0 q
q474 1900.0 1.0 q
q475 1880.0 1.0 q
q476 1870.0 1.0 q
q477 1820.0 1.0 q
q478 1900.0 1.0 q
q479 2009.9999999999998 1.0 q
q480 2020.0 1.0 q
q481 1970.0 1.0 q
q482 1960.0 1.0 q
q483 1890.0 1.0 q
q484 1880.0 1.0 q
q485 1840.0 1.0 q
q486 1850.0 1.0 q
q487 2050.0 1.0 q
q488 2070.0 1.0 q
q489 2070.0 1.0 q
q490 2080.0 1.0 q
q491 2150.0 1.0 q
q492 2340.0 1.0 q
q493 2250.0 1.0 q
q494 2150.0 1.0 q
q495 2200.0 1.0 q
q496 2110.0 1.0 q
q497 2060.0 1.0 q
q498 2120.0 1.0 q
q499 2040.0 1.0 q
q500 2050.0 1.0 q
q501 2040.0 1.0 q
q502 2130.0 1.0 q
q503 2070.0 1.0 q
q504 2110.0 1.0 q
q505 2060.0 1.0 q
q506 2029.9999999999998 1.0 q
q507 2029.9999999999998 1.0 q
q508 2080.0 1.0 q
q509 2110.0 1.0 q
q510 2120.0 1.0 q
q511 2240.0 1.0 q
q512 2300.0 1.0 q
q513 2300.0 1.0 q
q514 2300.0 1.0 q
q515 2260.0 1.0 q
q516 2300.0 1.0 q
q517 2220.0 1.0 q
q518 2320.0 1.0 q
q519 2150.0 1.0 q
q520 2380.0 1.0 q
q521 2190.0 1.0 q
q522 2250.0 1.0 q
q523 2290.0 1.0 q
q524 2310.0 1.0 q
q525 2140.0 1.0 q
q526 1950.0 1.0 q
q527 1900.0 1.0 q
q528 1890.0 1.0 q
q529 1860.0 1.0 q
q530 1810.0 1.0 q
q531 1790.0 1.0 q
q532 1760.0 1.0 q
q533 1680.0 1.0 q
q534 1670.0 1.0 q
q535 1680.0 1.0 q
q536 1680.0 1.0 q
q537 1850.0 1.0 q
q538 1830.0 1.0 q
q539 1770.0 1.0 q
q540 1720.0 1.0 q
q541 1660.0 1.0 q
q542 1830.0 1.0 q
q543 1920.0 1.0 q
q544 1860.0 1.0 q
q545 1820.0 1.0 q
q546 1820.0 1.0 q
q547 1770.0 1.0 q
q548 1790.0 1.0 q
q549 1780.0 1.0 q
q550 1820.0 1.0 q
q551 1820.0 1.0 q
q552 1730.0 1.0 q
q553 1760.0 1.0 q
q554 1750.0 1.0 q
q555 1690.0 1.0 q
q556 1580.0 1.0 q
q557 1650.0 1.0 q
q558 1810.0 1.0 q
q559 1820.0 1.0 q
q560 1790.0 1.0 q
q561 1760.0 1.0 q
q562 1760.0 1.0 q
q563 1740.0 1.0 q
q564 1560.0 1.0 q
q565 1730.0 1.0 q
q568 1760.0 1.0 q
q569 2110.0 1.0 q
q570 2020.0 1.0 q
q571 2029.9999999999998 1.0 q
q572 2000.0 1.0 q
q573 1960.0 1.0 q
q574 1980.0 1.0 q
q575 1960.0 1.0 q
q576 1870.0 1.0 q
q577 1890.0 1.0 q
q578 1840.0 1.0 q
q579 1900.0 1.0 q
q580 1910.0 1.0 q
q581 1970.0 1.0 q
q582 2090.0 1.0 q
q583 2009.9999999999998 1.0 q
q584 1910.0 1.0 q
q585 1970.0 1.0 q
q586 1970.0 1.0 q
q587 2029.9999999999998 1.0 q
q588 2100.0 1.0 q
q589 2200.0 1.0 q
q590 2240.0 1.0 q
q591 2140.0 1.0 q
q592 2200.0 1.0 q
q593 2090.0 1.0 q
q594 2100.0 1.0 q
q595 2050.0 1.0 q
q596 2000.0 1.0 q
q597 1980.0 1.0 q
q598 1990.0 1.0 q
q599 2040.0 1.0 q
q600 2140.0 1.0 q
q601 2320.0 1.0 q
q602 2420.0 1.0 q
q603 2190.0 1.0 q
q604 1960.0 1.0 q
q605 2160.0 1.0 q
q606 2330.0 1.0 q
q607 2360.0 1.0 q
q608 2310.0 1.0 q
q609 2370.0 1.0 q
q610 2410.0 1.0 q
q611 2310.0 1.0 q
q612 2340.0 1.0 q
q613 2250.0 1.0 q
q614 2330.0 1.0 q
q615 2390.0 1.0 q
q616 2470.0 1.0 q
q617 2610.0 1.0 q
q618 2590.0 1.0 q
q619 2620.0 1.0 q
q620 2930.0 1.0 q
q621 2980.0 1.0 q
q622 2670.0 1.0 q
q623 2570.0 1.0 q
q624 2440.0 1.0 q
q625 2560.0 1.0 q
q626 2960.0 1.0 q
q627 2750.0 1.0 q
q628 2730.0 1.0 q
q629 2750.0 1.0 q
q630 2900.0 1.0 q
q631 2970.0 1.0 q
q632 2800.0 1.0 q
q633 2750.0 1.0 q
q634 2610.0 1.0 q
q635 2620.0 1.0 q
q636 2550.0 1.0 q
q637 2490.0 1.0 q
q638 2450.0 1.0 q
q639 2420.0 1.0 q
q640 2340.0 1.0 q
q641 2370.0 1.0 q
q643 2490.0 1.0 q
q644 2770.0 1.0 q
q645 2970.0 1.0 q
q646 2900.0 1.0 q
q647 2960.0 1.0 q
q648 3330.0 1.0 q
q649 3800.0 1.0 q
q650 3790.0 1.0 q
q651 4030.0000000000005 1.0 q
q652 4240.0 1.0 q
q653 4360.0 1.0 q
q654 4400.0 1.0 q
q655 4330.0 1.0 q
q656 4590.0 1.0 q
q657 4710.0 1.0 q
q658 4670.0 1.0 q
q659 4370.0 1.0 q
q660 4230.0 1.0 q
q661 4410.0 1.0 q
q662 4530.0 1.0 q
q663 4230.0 1.0 q
q664 4430.0 1.0 q
q665 4810.0 1.0 q
q666 5240.0 1.0 q
q667 4920.0 1.0 q
q668 4470.0 1.0 q
q669 4190.0 1.0 q
q670 4310.0 1.0 q
q671 4520.0 1.0 q
q672 4970.0 1.0 q
q673 5340.0 1.0 q
q674 5520.0 1.0 q
q675 5100.0 1.0 q
q676 4580.0 1.0 q
q677 4360.0 1.0 q
q678 4050.0 1.0 q
q679 3690.0 1.0 q
q680 3460.0 1.0 q
q681 3430.0 1.0 q
q682 3750.0 1.0 q
q683 3850.0 1.0 q
q684 3970.0 1.0 q
q685 3820.0 1.0 q
q686 3840.0 1.0 q
q687 3930.0 1.0 q
q688 4270.0 1.0 q
q689 4260.0 1.0 q
q690 4360.0 1.0 q
q691 4420.0 1.0 q
q692 4410.0 1.0 q
q693 4580.0 1.0 q
q694 4480.0 1.0 q
q695 4440.0 1.0 q
q696 4370.0 1.0 q
q697 4280.0 1.0 q
q698 4210.0 1.0 q
q699 4240.0 1.0 q
q700 4240.0 1.0 q
q701 4340.0 1.0 q
q702 4500.0 1.0 q
q703 4270.0 1.0 q
q704 4000.0 1.0 q
q705 3820.0 1.0 q
q706 3870.0 1.0 q
q707 3910.0 1.0 q
q708 3980.0 1.0 q
q709 4070.0000000000005 1.0 q
q710 4080.0 1.0 q
q711 3930.0 1.0 q
q712 3890.0 1.0 q
q713 3930.0 1.0 q
q714 3840.0 1.0 q
q715 3670.0 1.0 q
q716 3740.0 1.0 q
q717 3870.0 1.0 q
q718 3910.0 1.0 q
q719 3870.0 1.0 q
q720 3830.0 1.0 q
q721 3790.0 1.0 q
q722 3650.0 1.0 q
q723 3590.0 1.0 q
q724 3760.0 1.0 q
q725 4050.0 1.0 q
q726 4210.0 1.0 q
q727 4400.0 1.0 q
q728 3970.0 1.0 q
q729 3720.0 1.0 q
q730 3650.0 1.0 q
q731 3510.0 1.0 q
q732 3500.0 1.0 q
q733 3380.0 1.0 q
q734 3290.0 1.0 q
q735 3320.0 1.0 q
q736 3300.0 1.0 q
q737 3310.0 1.0 q
q738 3300.0 1.0 q
q739 3320.0 1.0 q
q740 3190.0 1.0 q
q741 3220.0 1.0 q
q742 3190.0 1.0 q
q743 3150.0 1.0 q
q744 3100.0 1.0 q
q745 3140.0 1.0 q
q746 3110.0 1.0 q
q747 2940.0 1.0 q
q748 2830.0 1.0 q
q749 2690.0 1.0 q
q750 2600.0 1.0 q
q751 2580.0 1.0 q
q752 2510.0 1.0 q
q753 2520.0 1.0 q
q754 2510.0 1.0 q
q755 2460.0 1.0 q
q756 2430.0 1.0 q
q757 2450.0 1.0 q
q758 2360.0 1.0 q
q759 2290.0 1.0 q
q760 2190.0 1.0 q
q761 2130.0 1.0 q
q762 2140.0 1.0 q
q763 2170.0 1.0 q
q764 2240.0 1.0 q
q765 2270.0 1.0 q
q766 2260.0 1.0 q
q767 2310.0 1.0 q
q768 2450.0 1.0 q
q769 2430.0 1.0 q
q770 2420.0 1.0 q
q771 2510.0 1.0 q
q772 2490.0 1.0 q
q773 2400.0 1.0 q
q774 2350.0 1.0 q
q775 2380.0 1.0 q
q776 2470.0 1.0 q
q777 2380.0 1.0 q
q778 2330.0 1.0 q
q779 2370.0 1.0 q
q780 2370.0 1.0 q
q781 2330.0 1.0 q
q782 2360.0 1.0 q
q783 2500.0 1.0 q
q784 2400.0 1.0 q
q785 2440.0 1.0 q
q786 2400.0 1.0 q
q787 2360.0 1.0 q
q788 2410.0 1.0 q
q789 2350.0 1.0 q
q790 2310.0 1.0 q
q791 2310.0 1.0 q
q792 2340.0 1.0 q
q793 2330.0 1.0 q
q794 2190.0 1.0 q
q795 2190.0 1.0 q
q796 2160.0 1.0 q
q797 2220.0 1.0 q
q798 2270.0 1.0 q
q799 2320.0 1.0 q
q800 2400.0 1.0 q
q801 2310.0 1.0 q
q802 2350.0 1.0 q
q803 2280.0 1.0 q
q804 2280.0 1.0 q
q805 2240.0 1.0 q
q806 2270.0 1.0 q
q807 2310.0 1.0 q
q808 2210.0 1.0 q
q809 2250.0 1.0 q
q810 2220.0 1.0 q
q811 2210.0 1.0 q
q812 2230.0 1.0 q
q813 2210.0 1.0 q
q814 2160.0 1.0 q
q815 2150.0 1.0 q
q816 2160.0 1.0 q
q817 2200.0 1.0 q
q818 2240.0 1.0 q
q819 2320.0 1.0 q
q820 2370.0 1.0 q
q821 2350.0 1.0 q
q822 2350.0 1.0 q
q823 2310.0 1.0 q
q824 2300.0 1.0 q
q825 2220.0 1.0 q
q826 2180.0 1.0 q
q827 2150.0 1.0 q
q828 2120.0 1.0 q
q829 2120.0 1.0 q
q830 2080.0 1.0 q
q831 2520.0 1.0 q
q832 2400.0 1.0 q
q833 2400.0 1.0 q
q834 2350.0 1.0 q
q835 2340.0 1.0 q
q836 2390.0 1.0 q
q837 2230.0 1.0 q
q838 1930.0 1.0 q
q839 1780.0 1.0 q
q840 1750.0 1.0 q
q841 1650.0 1.0 q
q842 1670.0 1.0 q
q843 1630.0 1.0 q
q844 1680.0 1.0 q
q845 1620.0 1.0 q
q846 1650.0 1.0 q
q847 1630.0 1.0 q
q848 1680.0 1.0 q
q849 1810.0 1.0 q
q850 1750.0 1.0 q
q851 1750.0 1.0 q
q852 1730.0 1.0 q
q853 1730.0 1.0 q
q854 1780.0 1.0 q
q855 1910.0 1.0 q
q856 1960.0 1.0 q
q857 1980.0 1.0 q
q858 1930.0 1.0 q
q859 1910.0 1.0 q
q860 1860.0 1.0 q
q861 1870.0 1.0 q
q862 1970.0 1.0 q
q863 1920.0 1.0 q
q864 2110.0 1.0 q
q865 2260.0 1.0 q
q866 2330.0 1.0 q
q867 2490.0 1.0 q
q868 2420.0 1.0 q
q869 2320.0 1.0 q
q870 2260.0 1.0 q
q871 2230.0 1.0 q
q872 2270.0 1.0 q
q873 2280.0 1.0 q
q874 2250.0 1.0 q
q875 2380.0 1.0 q
q876 3290.0 1.0 q
q877 5250.0 1.0 q
q878 4770.0 1.0 q
q879 4250.0 1.0 q
q880 3630.0 1.0 q
q881 3240.0 1.0 q
q882 3030.0 1.0 q
q883 2830.0 1.0 q
q884 2790.0 1.0 q
q885 2640.0 1.0 q
q886 2540.0 1.0 q
q887 1590.0 1.0 q
q888 2620.0 1.0 q
q889 2880.0 1.0 q
q890 2830.0 1.0 q
q891 2770.0 1.0 q
q892 2680.0 1.0 q
q893 2710.0 1.0 q
q894 2810.0 1.0 q
q895 2770.0 1.0 q
q896 2690.0 1.0 q
q897 2700.0 1.0 q
q898 2720.0 1.0 q
q899 2710.0 1.0 q
q900 2620.0 1.0 q
q901 2530.0 1.0 q
q902 2570.0 1.0 q
q903 2650.0 1.0 q
q904 2550.0 1.0 q
q905 2630.0 1.0 q
q906 2790.0 1.0 q
q907 3190.0 1.0 q
q908 4080.0 1.0 q
q909 3590.0 1.0 q
q910 3380.0 1.0 q
q911 2890.0 1.0 q
q912 2770.0 1.0 q
q913 2670.0 1.0 q
q914 2730.0 1.0 q
q915 2660.0 1.0 q
q916 2390.0 1.0 q
q917 2520.0 1.0 q
q918 2530.0 1.0 q
q919 2570.0 1.0 q
q920 2600.0 1.0 q
q921 2610.0 1.0 q
q922 2580.0 1.0 q
q923 2610.0 1.0 q
q924 2630.0 1.0 q
q925 2620.0 1.0 q
q926 2730.0 1.0 q
q927 2770.0 1.0 q
q928 2900.0 1.0 q
q929 2900.0 1.0 q
q930 3000.0 1.0 q
q931 3100.0 1.0 q
q932 3090.0 1.0 q
q933 2870.0 1.0 q
q934 2900.0 1.0 q
q935 1940.0 1.0 q
q936 1880.0 1.0 q
q937 3490.0 1.0 q
q938 3610.0 1.0 q
q939 3480.0 1.0 q
q940 3570.0 1.0 q
q941 3580.0 1.0 q
q942 3320.0 1.0 q
q943 3130.0 1.0 q
q944 2990.0 1.0 q
q945 3000.0 1.0 q
q946 2970.0 1.0 q
q947 2820.0 1.0 q
q948 2830.0 1.0 q
q949 2810.0 1.0 q
q950 2770.0 1.0 q
q951 2710.0 1.0 q
q952 2760.0 1.0 q
q953 3110.0 1.0 q
q954 3750.0 1.0 q
q955 4300.0 1.0 q
q956 4770.0 1.0 q
q957 5070.0 1.0 q
q958 5140.0 1.0 q
q959 5090.0 1.0 q
q960 5100.0 1.0 q
q961 4810.0 1.0 q
q962 4480.0 1.0 q
q963 4200.0 1.0 q
q964 4019.9999999999995 1.0 q
q965 3970.0 1.0 q
q966 3750.0 1.0 q
q967 3740.0 1.0 q
q968 3790.0 1.0 q
q969 3870.0 1.0 q
q970 4120.0 1.0 q
q971 4130.0 1.0 q
q972 4000.0 1.0 q
q973 4040.0 1.0 q
q974 4000.0 1.0 q
q975 4080.0 1.0 q
q976 4370.0 1.0 q
q977 4540.0 1.0 q
q978 4780.0 1.0 q
q979 4750.0 1.0 q
q980 4640.0 1.0 q
q981 4360.0 1.0 q
q982 4200.0 1.0 q
q983 4019.9999999999995 1.0 q
q984 3930.0 1.0 q
q985 3930.0 1.0 q
q986 3940.0 1.0 q
q987 4040.0 1.0 q
q988 4210.0 1.0 q
q989 4110.0 1.0 q
q990 4059.9999999999995 1.0 q
q991 3950.0 1.0 q
q992 3780.0 1.0 q
q993 3610.0 1.0 q
q994 3470.0 1.0 q
q995 3590.0 1.0 q
q996 3850.0 1.0 q
q997 3900.0 1.0 q
q998 4530.0 1.0 q
q999 5340.0 1.0 q
q1000 6010.0 1.0 q
q1001 6360.0 1.0 q
q1002 6840.0 1.0 q
q1003 6850.0 1.0 q
q1004 6530.0 1.0 q
q1005 6770.0 1.0 q
q1006 7030.0 1.0 q
q1007 6610.0 1.0 q
q1008 6620.0 1.0 q
q1009 6450.0 1.0 q
q1010 6670.0 1.0 q
q1011 6320.0 1.0 q
q1012 6020.0 1.0 q
q1013 6010.0 1.0 q
q1014 6450.0 1.0 q
q1015 6840.0 1.0 q
q1016 7470.0 1.0 q
q1017 8860.0 1.0 q
q1018 10300.0 1.0 q
q1019 11600.0 1.0 q
q1020 12600.0 1.0 q
q1021 13200.0 1.0 q
q1022 13800.0 1.0 q
q1023 13600.0 1.0 q
q1024 11400.0 1.0 q
q1025 9800.0 1.0 q
q1026 8440.0 1.0 q
q1027 7860.0 1.0 q
q1028 7430.0 1.0 q
q1029 7530.0 1.0 q
q1030 7310.0 1.0 q
q1031 7690.0 1.0 q
q1032 8170.0 1.0 q
q1033 8070.0 1.0 q
q1034 7910.0 1.0 q
q1035 8460.0 1.0 q
q1036 9800.0 1.0 q
q1037 10600.0 1.0 q
q1038 10600.0 1.0 q
q1039 10000.0 1.0 q
q1040 9720.0 1.0 q
q1041 9920.0 1.0 q
q1042 9720.0 1.0 q
q1043 9710.0 1.0 q
q1044 9370.0 1.0 q
q1045 8870.0 1.0 q
q1046 8740.0 1.0 q
q1047 9430.0 1.0 q
q1048 10200.0 1.0 q
q1049 11100.0 1.0 q
q1050 12700.0 1.0 q
q1051 14100.0 1.0 q
q1052 14600.0 1.0 q
q1053 14900.0 1.0 q
q1054 14500.0 1.0 q
q1055 14500.0 1.0 q
q1056 14800.0 1.0 q
q1057 15700.0 1.0 q
q1058 17500.0 1.0 q
q1059 19500.0 1.0 q
q1060 19300.0 1.0 q
q1061 18000.0 1.0 q
q1062 18300.0 1.0 q
q1063 19400.0 1.0 q
q1064 18400.0 1.0 q
q1065 18700.0 1.0 q
q1066 17800.0 1.0 q
q1067 17500.0 1.0 q
q1068 17500.0 1.0 q
q1069 16700.0 1.0 q
q1070 16000.0 1.0 q
q1071 16000.0 1.0 q
q1072 16300.0 1.0 q
q1073 16600.0 1.0 q
q1074 16800.0 1.0 q
q1075 16400.0 1.0 q
q1076 16000.0 1.0 q
q1077 15700.0 1.0 q
q1078 15900.0 1.0 q
q1079 16500.0 1.0 q
q1080 17000.0 1.0 q
q1081 15900.0 1.0 q
q1082 15600.0 1.0 q
q1083 16500.0 1.0 q
q1084 16400.0 1.0 q
q1085 16200.0 1.0 q
q1086 15700.0 1.0 q
q1087 15500.0 1.0 q
q1088 15300.0 1.0 q
q1089 15100.0 1.0 q
q1090 15100.0 1.0 q
q1091 15500.0 1.0 q
q1092 15700.0 1.0 q
q1093 15300.0 1.0 q
q1094 15300.0 1.0 q
q1095 15300.0 1.0 q
q1096 15000.0 1.0 q
q1097 14900.0 1.0 q
q1098 14900.0 1.0 q
q1099 14800.0 1.0 q
q1100 14600.0 1.0 q
q1101 14400.0 1.0 q
q1102 14100.0 1.0 q
q1103 14000.0 1.0 q
q1104 13500.0 1.0 q
q1105 13300.0 1.0 q
q1106 12700.0 1.0 q
q1107 12300.0 1.0 q
q1108 12200.0 1.0 q
q1109 12100.0 1.0 q
q1110 12300.0 1.0 q
q1111 12200.0 1.0 q
q1112 12000.0 1.0 q
q1113 11800.0 1.0 q
q1114 11500.0 1.0 q
q1115 11200.0 1.0 q
q1116 11000.0 1.0 q
q1117 10900.0 1.0 q
q1118 10900.0 1.0 q
q1119 10700.0 1.0 q
q1120 10100.0 1.0 q
q1121 9860.0 1.0 q
q1122 9830.0 1.0 q
q1123 9550.0 1.0 q
q1124 9540.0 1.0 q
q1125 9510.0 1.0 q
q1126 9320.0 1.0 q
q1127 9250.0 1.0 q
q1128 9030.0 1.0 q
q1129 9180.0 1.0 q
q1130 8960.0 1.0 q
q1131 8850.0 1.0 q
q1132 8800.0 1.0 q
q1133 8770.0 1.0 q
q1134 8540.0 1.0 q
q1135 8380.0 1.0 q
q1136 8220.0 1.0 q
q1137 7970.0 1.0 q
q1138 7890.0 1.0 q
q1139 7810.0 1.0 q
q1140 7600.0 1.0 q
q1141 7410.0 1.0 q
q1142 7200.0 1.0 q
q1143 7330.0 1.0 q
q1144 7240.0 1.0 q
q1145 7260.0 1.0 q
q1146 7140.0 1.0 q
q1147 7230.0 1.0 q
q1148 7090.0 1.0 q
q1149 7050.0 1.0 q
q1150 6980.0 1.0 q
q1151 6910.0 1.0 q
q1152 6910.0 1.0 q
q1153 6830.0 1.0 q
q1154 6720.0 1.0 q
q1155 6420.0 1.0 q
q1156 6450.0 1.0 q
q1157 6500.0 1.0 q
q1158 6440.0 1.0 q
q1159 6230.0 1.0 q
q1160 6140.0 1.0 q
q1161 6190.0 1.0 q
q1162 6300.0 1.0 q
q1163 6220.0 1.0 q
q1164 6060.0 1.0 q
q1165 6000.0 1.0 q
q1166 5920.0 1.0 q
q1167 5840.0 1.0 q
q1168 5790.0 1.0 q
q1169 5440.0 1.0 q
q1170 5180.0 1.0 q
q1171 5100.0 1.0 q
q1172 5020.0 1.0 q
q1173 5060.0 1.0 q
q1174 5080.0 1.0 q
q1175 4960.0 1.0 q
q1176 4850.0 1.0 q
q1177 4940.0 1.0 q
q1178 4920.0 1.0 q
q1179 4930.0 1.0 q
q1180 4720.0 1.0 q
q1181 4690.0 1.0 q
q1182 4690.0 1.0 q
q1183 4610.0 1.0 q
q1184 4630.0 1.0 q
q1185 4650.0 1.0 q
q1186 4500.0 1.0 q
q1187 4480.0 1.0 q
q1188 4400.0 1.0 q
q1189 4360.0 1.0 q
q1190 4500.0 1.0 q
q1191 4530.0 1.0 q
q1192 4470.0 1.0 q
q1193 4240.0 1.0 q
q1194 4230.0 1.0 q
q1195 4250.0 1.0 q
q1196 4200.0 1.0 q
q1197 4190.0 1.0 q
q1198 4110.0 1.0 q
q1199 4110.0 1.0 q
q1200 4100.0 1.0 q
q1201 4220.0 1.0 q
q1202 4290.0 1.0 q
q1203 4380.0 1.0 q
q1204 4310.0 1.0 q
q1205 4410.0 1.0 q
q1206 4270.0 1.0 q
q1207 4330.0 1.0 q
q1208 4350.0 1.0 q
q1209 4340.0 1.0 q
q1210 4350.0 1.0 q
q1211 4270.0 1.0 q
q1212 4250.0 1.0 q
q1213 4210.0 1.0 q
q1214 4170.0 1.0 q
q1215 4030.0000000000005 1.0 q
q1216 3980.0 1.0 q
q1217 3990.0 1.0 q
q1218 3950.0 1.0 q
q1219 3930.0 1.0 q
q1220 3840.0 1.0 q
q1221 3850.0 1.0 q
q1222 3800.0 1.0 q
q1223 3750.0 1.0 q
q1224 3760.0 1.0 q
q1225 3600.0 1.0 q
q1226 3610.0 1.0 q
q1227 3470.0 1.0 q
q1228 3470.0 1.0 q
q1229 3470.0 1.0 q
q1230 3380.0 1.0 q
q1231 3350.0 1.0 q
q1232 3300.0 1.0 q
q1233 3270.0 1.0 q
q1234 3320.0 1.0 q
q1235 3290.0 1.0 q
q1236 3360.0 1.0 q
q1237 2029.9999999999998 1.0 q
q1238 4000.0 1.0 q
q1239 4630.0 1.0 q
q1240 4680.0 1.0 q
q1241 4300.0 1.0 q
q1242 4360.0 1.0 q
q1243 4370.0 1.0 q
q1244 4120.0 1.0 q
q1245 3950.0 1.0 q
q1246 4000.0 1.0 q
q1247 4010.0 1.0 q
q1248 4190.0 1.0 q
q1249 4210.0 1.0 q
q1250 4010.0 1.0 q
q1251 3890.0 1.0 q
q1252 3880.0 1.0 q
q1253 3830.0 1.0 q
q1254 3850.0 1.0 q
q1255 4010.0 1.0 q
q1256 4030.0000000000005 1.0 q
q1257 3830.0 1.0 q
q1258 3740.0 1.0 q
q1259 3410.0 1.0 q
q1260 3420.0 1.0 q
q1261 3210.0 1.0 q
q1262 3400.0 1.0 q
q1263 3240.0 1.0 q
q1264 3160.0 1.0 q
q1265 3030.0 1.0 q
q1266 3050.0 1.0 q
q1267 3100.0 1.0 q
q1268 3160.0 1.0 q
q1269 3210.0 1.0 q
q1270 3210.0 1.0 q
q1271 3170.0 1.0 q
q1272 3150.0 1.0 q
q1273 3140.0 1.0 q
q1274 3130.0 1.0 q
q1275 3120.0 1.0 q
q1276 3120.0 1.0 q
q1277 3040.0 1.0 q
q1278 3040.0 1.0 q
q1279 3050.0 1.0 q
q1280 3110.0 1.0 q
q1281 3210.0 1.0 q
q1282 3210.0 1.0 q
q1283 3120.0 1.0 q
q1284 2920.0 1.0 q
q1285 2750.0 1.0 q
q1286 3850.0 1.0 q
q1287 3730.0 1.0 q
q1288 3570.0 1.0 q
q1289 3460.0 1.0 q
q1290 3410.0 1.0 q
q1291 3410.0 1.0 q
q1292 3310.0 1.0 q
q1293 3360.0 1.0 q
q1294 3330.0 1.0 q
q1295 3300.0 1.0 q
q1296 3290.0 1.0 q
q1297 3320.0 1.0 q
q1298 3240.0 1.0 q
q1299 3230.0 1.0 q
q1300 3220.0 1.0 q
q1301 3090.0 1.0 q
q1302 3020.0 1.0 q
q1303 2990.0 1.0 q
q1304 3020.0 1.0 q
q1305 3050.0 1.0 q
q1306 3080.0 1.0 q
q1307 3010.0 1.0 q
q1308 3020.0 1.0 q
q1309 2960.0 1.0 q
q1310 2960.0 1.0 q
q1311 2980.0 1.0 q
q1312 2940.0 1.0 q
q1313 2850.0 1.0 q
q1314 2850.0 1.0 q
q1315 2830.0 1.0 q
q1316 2830.0 1.0 q
q1317 2840.0 1.0 q
q1318 2820.0 1.0 q
q1319 2830.0 1.0 q
q1320 2890.0 1.0 q
q1321 2830.0 1.0 q
q1322 2850.0 1.0 q
q1323 2890.0 1.0 q
q1324 2980.0 1.0 q
q1325 3040.0 1.0 q
q1326 2960.0 1.0 q
q1327 2840.0 1.0 q
q1328 2640.0 1.0 q
q1329 2610.0 1.0 q
q1330 2540.0 1.0 q
q1331 2480.0 1.0 q
q1332 2400.0 1.0 q
q1333 2420.0 1.0 q
q1334 2400.0 1.0 q
q1335 2410.0 1.0 q
q1336 2420.0 1.0 q
q1337 2390.0 1.0 q
q1338 2300.0 1.0 q
q1339 2360.0 1.0 q
q1340 2430.0 1.0 q
q1341 2450.0 1.0 q
q1342 2510.0 1.0 q
q1343 2430.0 1.0 q
q1344 2300.0 1.0 q
q1345 2320.0 1.0 q
q1346 2340.0 1.0 q
q1347 2220.0 1.0 q
q1348 2250.0 1.0 q
q1349 2290.0 1.0 q
q1350 2250.0 1.0 q
q1351 2240.0 1.0 q
q1352 2240.0 1.0 q
q1353 2350.0 1.0 q
q1354 2240.0 1.0 q
q1355 2340.0 1.0 q
q1356 2330.0 1.0 q
q1357 2280.0 1.0 q
q1358 2230.0 1.0 q
q1359 2310.0 1.0 q
q1360 2380.0 1.0 q
q1361 2460.0 1.0 q
q1362 2330.0 1.0 q
q1363 2320.0 1.0 q
q1364 2240.0 1.0 q
q1365 2140.0 1.0 q
q1366 2230.0 1.0 q
q1367 2090.0 1.0 q
q1368 2180.0 1.0 q
q1369 2390.0 1.0 q
q1370 2370.0 1.0 q
q1371 2430.0 1.0 q
q1372 2480.0 1.0 q
q1373 2470.0 1.0 q
q1374 2450.0 1.0 q
q1375 2450.0 1.0 q
q1376 2470.0 1.0 q
q1377 2480.0 1.0 q
q1378 2420.0 1.0 q
q1379 2490.0 1.0 q
q1380 2590.0 1.0 q
q1381 2640.0 1.0 q
q1382 2740.0 1.0 q
q1383 2900.0 1.0 q
q1384 3160.0 1.0 q
q1385 3320.0 1.0 q
q1386 3260.0 1.0 q
q1387 3200.0 1.0 q
q1388 3210.0 1.0 q
q1389 3170.0 1.0 q
q1390 3140.0 1.0 q
q1391 2940.0 1.0 q
q1392 2990.0 1.0 q
q1393 2970.0 1.0 q
q1394 2950.0 1.0 q
q1395 2830.0 1.0 q
q1396 2770.0 1.0 q
q1397 2740.0 1.0 q
q1398 2840.0 1.0 q
q1399 3040.0 1.0 q
q1400 3240.0 1.0 q
q1401 3350.0 1.0 q
q1402 3340.0 1.0 q
q1403 3390.0 1.0 q
q1404 3150.0 1.0 q
q1405 3030.0 1.0 q
q1406 3030.0 1.0 q
q1407 3030.0 1.0 q
q1408 3050.0 1.0 q
q1409 3140.0 1.0 q
q1410 3090.0 1.0 q
q1411 3030.0 1.0 q
q1412 2910.0 1.0 q
q1413 2850.0 1.0 q