pcf
* control data
restart estimation
42    10095      18       0       2
2    2 single point   1   0   0
10.0  -3  0.3  0.03  10  lamforgive derforgive
10.0  10.0  0.001
0.1  noaui
   50  0.005  4  4  0.005  4
1  1  1  PARSAVEITN
* singular value decomposition
1
42 5E-06
1
* parameter groups
ddsd         relative 0.025  0.0  switch  2.0 parabolic 1.0e-4 0.5 smaller
ddsw         relative 0.025  0.0  switch  2.0 parabolic 1.0e-4 0.5 smaller
ddgd         relative 0.025  0.0  switch  2.0 parabolic 1.0e-4 0.5 smaller
ddgw         relative 0.025  0.0  switch  2.0 parabolic 1.0e-4 0.5 smaller
rcsd         relative 0.025  0.0  switch  2.0 parabolic 1.0e-4 0.5 smaller
rcsw         relative 0.025  0.0  switch  2.0 parabolic 1.0e-4 0.5 smaller
rcrd         relative 0.025  0.0  switch  2.0 parabolic 1.0e-4 0.5 smaller
rcrw         relative 0.025  0.0  switch  2.0 parabolic 1.0e-4 0.5 smaller
rcgd         relative 0.025  0.0  switch  2.0 parabolic 1.0e-4 0.5 smaller
rcgw         relative 0.025  0.0  switch  2.0 parabolic 1.0e-4 0.5 smaller
tl           relative 0.025  0.0  switch  2.0 parabolic 1.0e-4 0.5 smaller
xw           relative 0.025  0.0  switch  2.0 parabolic 1.0e-4 0.5 smaller
yw           relative 0.03  0.0  switch  2.0 parabolic 1.0e-4 0.5 smaller
x           relative 0.025  0.0  switch  2.0 parabolic 1.0e-4 0.5 smaller
y            relative 0.025  0.0  switch  2.0 parabolic 1.0e-4 0.5 smaller
tlr			 relative 0.5  0.0  switch  2.0 parabolic 1.0e-4 0.5 smaller
tls			 relative 0.5  0.0  switch  2.0 parabolic 1.0e-4 0.5 smaller
beta			 relative 0.025  0.0  switch  2.0 parabolic 1.0e-4 0.5 smaller
* parameter data
ddsd	log	factor   0.3360900      1.00e-01	2.1	ddsd	1	0	1
ddsw	log	factor   0.8710300      1.00e-01	2.1	ddsw	1	0	1
ddgd	log	factor   0.8733922      1.00e-08	2.1	ddgd	1	0	1
ddgw	log	factor   7.4747865E-02  1.00e-08	2.1	ddgw	1	0	1
rcs1d	log	factor   0.3080178      1.00e-08	2	rcsd	1	0	1
rcs1w	log	factor   0.5728968      1.00e-08	2	rcsw	1	0	1
rcs2d	log	factor   0.6451495      1.00e-08	2	rcsd	1	0	1
rcs2w	log	factor    1.000000      1.00e-08	2	rcsw	1	0	1
rcs3d	log	factor   9.5559882E-02  1.00e-08	2	rcsd	1	0	1
rcs3w	log	factor   0.9729521      1.00e-08	2	rcsw	1	0	1
rcs4d	log	factor   1.8911064E-02  1.00e-08	2	rcsd	1	0	1
rcs4w	log	factor   0.2466128      1.00e-08	2	rcsw	1	0	1
rcs5d	log	factor   1.6921434E-02  1.00e-08	2	rcsd	1	0	1
rcs5w	log	factor   0.1452045      1.00e-08	2	rcsw	1	0	1
rcs6d	log	factor   1.3719932E-02  1.00e-08	2	rcsd	1	0	1
rcs6w	log	factor   5.4964218E-02  1.00e-08	2	rcsw	1	0	1
rcs7d	log	factor   4.7759340E-03  1.00e-08	2	rcsd	1	0	1
rcs7w	log	factor    1.000000      1.00e-08	2	rcsw	1	0	1
rcr1d	log	factor   5.3870689E-02  1.00e-08	2	rcrd	1	0	1
rcr1w	log	factor   0.1040280      1.00e-08	2	rcrw	1	0	1
rcr2d	log	factor   0.4681088      1.00e-08	2	rcrd	1	0	1
rcr2w	log	factor    1.000000      1.00e-08	2	rcrw	1	0	1
rcr3d	log	factor   6.4997515E-02  1.00e-08	2	rcrd	1	0	1
rcr3w	log	factor   0.6203708      1.00e-08	2	rcrw	1	0	1
rcr4d	log	factor   2.2387906E-02  1.00e-08	2	rcrd	1	0	1
rcr4w	log	factor   0.1654679      1.00e-08	2	rcrw	1	0	1
rcr5d	log	factor   1.0704311E-02  1.00e-08	2	rcrd	1	0	1
rcr5w	log	factor   8.4064740E-02  1.00e-08	2	rcrw	1	0	1
rcr6d	log	factor   2.0269567E-02  1.00e-08	2	rcrd	1	0	1
rcr6w	log	factor   4.4612486E-02  1.00e-08	2	rcrw	1	0	1
rcr7d	log	factor   1.2651024E-02  1.00e-08	2	rcrd	1	0	1
rcr7w	log	factor   1.2726639E-02  1.00e-08	2	rcrw	1	0	1
rcgd	log	factor   2.1930811E-02  1.00e-08	2	rcgd	1	0	1
rcgw	log	factor   0.3551119      1.00e-08	2	rcgw	1	0	1
tl	log	factor    5.000000      1.00e-08	5	tl	1	0	1
xw	log	factor   0.9523951      1.00e-08	2.1	xw	1	0	1
yw	log	factor   2.5432844E-04  1.00e-08	1	yw	1	0	1
x	log	factor    1.156447      1.00e-08	2.3	x	1	0	1
y	log	factor   2.8469426E-02  1.00e-08	1	y	1	0	1
tlr	log	factor   6.8200000E-02  1.00e-08	10	tlr	1	0	1
tls	log	factor   0.2220000      1.00e-08	30	tls	1	0	1
beta	log	factor   0.3100000      2.00e-01	4.1e-01	beta	1	0	1
* observation groups
q
swe
* observation data
q1 1050.0 1.0 q
q2 1000.0 1.0 q
q3 862.0 1.0 q
q4 891.0 1.0 q
q5 935.0 1.0 q
q6 961.0 1.0 q
q7 1000.0 1.0 q
q8 1030.0 1.0 q
q9 992.0 1.0 q
q10 874.0 1.0 q
q11 878.0 1.0 q
q12 943.0 1.0 q
q13 975.0 1.0 q
q14 977.0 1.0 q
q15 1010.0 1.0 q
q16 1010.0 1.0 q
q17 902.0 1.0 q
q18 867.0 1.0 q
q19 913.0 1.0 q
q20 918.0 1.0 q
q21 945.0 1.0 q
q22 1000.0 1.0 q
q23 980.0 1.0 q
q24 846.0 1.0 q
q25 853.0 1.0 q
q26 893.0 1.0 q
q27 864.0 1.0 q
q28 898.0 1.0 q
q29 950.0 1.0 q
q30 905.0 1.0 q
q31 792.0 1.0 q
q32 794.0 1.0 q
q33 806.0 1.0 q
q34 817.0 1.0 q
q37 866.0 1.0 q
q38 1070.0 1.0 q
q40 1100.0 1.0 q
q41 1090.0 1.0 q
q42 1100.0 1.0 q
q44 1090.0 1.0 q
q45 944.0 1.0 q
q46 879.0 1.0 q
q47 907.0 1.0 q
q48 967.0 1.0 q
q49 1030.0 1.0 q
q50 1040.0 1.0 q
q51 1040.0 1.0 q
q52 1020.0 1.0 q
q53 1030.0 1.0 q
q54 986.0 1.0 q
q55 893.0 1.0 q
q56 860.0 1.0 q
q57 886.0 1.0 q
q58 984.0 1.0 q
q59 1010.0 1.0 q
q60 915.0 1.0 q
q61 992.0 1.0 q
q62 997.0 1.0 q
q63 981.0 1.0 q
q64 968.0 1.0 q
q65 872.0 1.0 q
q66 806.0 1.0 q
q67 798.0 1.0 q
q68 844.0 1.0 q
q69 945.0 1.0 q
q70 952.0 1.0 q
q71 952.0 1.0 q
q72 946.0 1.0 q
q73 924.0 1.0 q
q74 937.0 1.0 q
q75 895.0 1.0 q
q76 816.0 1.0 q
q77 790.0 1.0 q
q78 851.0 1.0 q
q79 915.0 1.0 q
q80 957.0 1.0 q
q81 925.0 1.0 q
q82 893.0 1.0 q
q83 897.0 1.0 q
q84 881.0 1.0 q
q85 819.0 1.0 q
q88 818.0 1.0 q
q89 873.0 1.0 q
q90 893.0 1.0 q
q91 893.0 1.0 q
q92 907.0 1.0 q
q93 918.0 1.0 q
q94 939.0 1.0 q
q95 847.0 1.0 q
q97 814.0 1.0 q
q98 852.0 1.0 q
q99 908.0 1.0 q
q100 898.0 1.0 q
q101 882.0 1.0 q
q102 879.0 1.0 q
q103 876.0 1.0 q
q104 880.0 1.0 q
q107 1070.0 1.0 q
q108 996.0 1.0 q
q109 1000.0 1.0 q
q110 944.0 1.0 q
q111 934.0 1.0 q
q112 917.0 1.0 q
q113 889.0 1.0 q
q114 852.0 1.0 q
q115 785.0 1.0 q
q116 777.0 1.0 q
q117 788.0 1.0 q
q118 840.0 1.0 q
q119 878.0 1.0 q
q120 885.0 1.0 q
q121 895.0 1.0 q
q122 930.0 1.0 q
q123 925.0 1.0 q
q124 911.0 1.0 q
q125 831.0 1.0 q
q127 887.0 1.0 q
q128 942.0 1.0 q
q129 987.0 1.0 q
q130 984.0 1.0 q
q131 1000.0 1.0 q
q132 1010.0 1.0 q
q133 1010.0 1.0 q
q134 978.0 1.0 q
q135 967.0 1.0 q
q136 989.0 1.0 q
q137 955.0 1.0 q
q138 995.0 1.0 q
q139 993.0 1.0 q
q140 1000.0 1.0 q
q141 960.0 1.0 q
q142 969.0 1.0 q
q143 937.0 1.0 q
q144 952.0 1.0 q
q145 903.0 1.0 q
q146 903.0 1.0 q
q147 870.0 1.0 q
q148 923.0 1.0 q
q149 930.0 1.0 q
q150 931.0 1.0 q
q151 899.0 1.0 q
q152 897.0 1.0 q
q153 921.0 1.0 q
q154 908.0 1.0 q
q155 852.0 1.0 q
q157 837.0 1.0 q
q158 908.0 1.0 q
q159 920.0 1.0 q
q160 968.0 1.0 q
q161 902.0 1.0 q
q162 920.0 1.0 q
q163 897.0 1.0 q
q164 833.0 1.0 q
q166 934.0 1.0 q
q167 900.0 1.0 q
q168 993.0 1.0 q
q169 985.0 1.0 q
q170 951.0 1.0 q
q171 968.0 1.0 q
q172 1020.0 1.0 q
q173 1010.0 1.0 q
q174 991.0 1.0 q
q175 1020.0 1.0 q
q176 1070.0 1.0 q
q177 1040.0 1.0 q
q180 978.0 1.0 q
q181 973.0 1.0 q
q182 1010.0 1.0 q
q183 1070.0 1.0 q
q184 989.0 1.0 q
q187 926.0 1.0 q
q188 1050.0 1.0 q
q189 1100.0 1.0 q
q190 1050.0 1.0 q
q191 1010.0 1.0 q
q192 952.0 1.0 q
q193 927.0 1.0 q
q194 1160.0 1.0 q
q195 1250.0 1.0 q
q196 1310.0 1.0 q
q197 1350.0 1.0 q
q198 1400.0 1.0 q
q199 1550.0 1.0 q
q200 1620.0 1.0 q
q201 1620.0 1.0 q
q202 1670.0 1.0 q
q203 1730.0 1.0 q
q204 1560.0 1.0 q
q205 1740.0 1.0 q
q206 2100.0 1.0 q
q207 2430.0 1.0 q
q208 2620.0 1.0 q
q210 2610.0 1.0 q
q211 2460.0 1.0 q
q212 2540.0 1.0 q
q214 2640.0 1.0 q
q215 2590.0 1.0 q
q216 2510.0 1.0 q
q217 2330.0 1.0 q
q218 2190.0 1.0 q
q219 2280.0 1.0 q
q220 2520.0 1.0 q
q221 2690.0 1.0 q
q224 2590.0 1.0 q
q225 2320.0 1.0 q
q226 2070.0 1.0 q
q227 1880.0 1.0 q
q228 1720.0 1.0 q
q229 1650.0 1.0 q
q230 1640.0 1.0 q
q231 1700.0 1.0 q
q232 1930.0 1.0 q
q233 2110.0 1.0 q
q234 2230.0 1.0 q
q235 1990.0 1.0 q
q236 1850.0 1.0 q
q237 1690.0 1.0 q
q238 1600.0 1.0 q
q239 1490.0 1.0 q
q240 1430.0 1.0 q
q241 1380.0 1.0 q
q243 1360.0 1.0 q
q247 1580.0 1.0 q
q248 1650.0 1.0 q
q249 1630.0 1.0 q
q250 1780.0 1.0 q
q251 1910.0 1.0 q
q252 1900.0 1.0 q
q253 1800.0 1.0 q
q254 1890.0 1.0 q
q255 2020.0 1.0 q
q256 1900.0 1.0 q
q257 1950.0 1.0 q
q258 1800.0 1.0 q
q259 1830.0 1.0 q
q260 1990.0 1.0 q
q261 2480.0 1.0 q
q262 2280.0 1.0 q
q263 2470.0 1.0 q
q264 2730.0 1.0 q
q265 2700.0 1.0 q
q266 3370.0 1.0 q
q267 4910.0 1.0 q
q268 4580.0 1.0 q
q269 4410.0 1.0 q
q270 4720.0 1.0 q
q271 5560.0 1.0 q
q274 5990.0 1.0 q
q275 6070.0 1.0 q
q276 6170.0 1.0 q
q277 5100.0 1.0 q
q278 4480.0 1.0 q
q279 4540.0 1.0 q
q280 5580.0 1.0 q
q281 6650.0 1.0 q
q282 7060.0 1.0 q
q283 6700.0 1.0 q
q284 5890.0 1.0 q
q285 5490.0 1.0 q
q286 5440.0 1.0 q
q287 5650.0 1.0 q
q288 5930.0 1.0 q
q289 6050.0 1.0 q
q290 6300.0 1.0 q
q291 6710.0 1.0 q
q292 6930.0 1.0 q
q293 7150.0 1.0 q
q294 8090.0 1.0 q
q297 8680.0 1.0 q
q298 7870.0 1.0 q
q299 6970.0 1.0 q
q300 6190.0 1.0 q
q301 6180.0 1.0 q
q302 6830.0 1.0 q
q303 7410.0 1.0 q
q304 8010.0 1.0 q
q305 7230.0 1.0 q
q306 6510.0 1.0 q
q307 6000.0 1.0 q
q308 5650.0 1.0 q
q309 5250.0 1.0 q
q310 4880.0 1.0 q
q311 4860.0 1.0 q
q312 4530.0 1.0 q
q313 4310.0 1.0 q
q314 4210.0 1.0 q
q315 4340.0 1.0 q
q316 4120.0 1.0 q
q319 4100.0 1.0 q
q320 4320.0 1.0 q
q321 4720.0 1.0 q
q322 5880.0 1.0 q
q323 7550.0 1.0 q
q324 8380.0 1.0 q
q325 8840.0 1.0 q
q326 9440.0 1.0 q
q327 10000.0 1.0 q
q328 10100.0 1.0 q
q329 10500.0 1.0 q
q330 11100.0 1.0 q
q331 12100.0 1.0 q
q334 12400.0 1.0 q
q335 11900.0 1.0 q
q337 10500.0 1.0 q
q338 9980.0 1.0 q
q339 9500.0 1.0 q
q340 8840.0 1.0 q
q341 8620.0 1.0 q
q342 9050.0 1.0 q
q343 8440.0 1.0 q
q344 8090.0 1.0 q
q345 8160.0 1.0 q
q346 8090.0 1.0 q
q347 7710.0 1.0 q
q348 7360.0 1.0 q
q349 7170.0 1.0 q
q350 6930.0 1.0 q
q351 6570.0 1.0 q
q352 6460.0 1.0 q
q353 6490.0 1.0 q
q354 6450.0 1.0 q
q355 6410.0 1.0 q
q356 6210.0 1.0 q
q357 5960.0 1.0 q
q358 5730.0 1.0 q
q359 5440.0 1.0 q
q360 5310.0 1.0 q
q361 5030.0 1.0 q
q362 4780.0 1.0 q
q363 4610.0 1.0 q
q364 4450.0 1.0 q
q365 4330.0 1.0 q
q369 3750.0 1.0 q
q370 3530.0 1.0 q
q371 3530.0 1.0 q
q372 3570.0 1.0 q
q373 3410.0 1.0 q
q374 3210.0 1.0 q
q375 3160.0 1.0 q
q376 3110.0 1.0 q
q377 3090.0 1.0 q
q378 3060.0 1.0 q
q379 3050.0 1.0 q
q380 2820.0 1.0 q
q381 2740.0 1.0 q
q382 2640.0 1.0 q
q383 2540.0 1.0 q
q384 2500.0 1.0 q
q385 2440.0 1.0 q
q386 2450.0 1.0 q
q387 2380.0 1.0 q
q388 2330.0 1.0 q
q389 2300.0 1.0 q
q390 2290.0 1.0 q
q391 2250.0 1.0 q
q392 2210.0 1.0 q
q393 2200.0 1.0 q
q394 2220.0 1.0 q
q395 2100.0 1.0 q
q396 2060.0 1.0 q
q397 1980.0 1.0 q
q398 1970.0 1.0 q
q399 1950.0 1.0 q
q400 2029.9999999999998 1.0 q
q401 2060.0 1.0 q
q402 1960.0 1.0 q
q403 1920.0 1.0 q
q404 1880.0 1.0 q
q405 1790.0 1.0 q
q406 1750.0 1.0 q
q407 1690.0 1.0 q
q408 1750.0 1.0 q
q409 1700.0 1.0 q
q410 1700.0 1.0 q
q411 1660.0 1.0 q
q412 1690.0 1.0 q
q413 1670.0 1.0 q
q414 1770.0 1.0 q
q415 1730.0 1.0 q
q416 1610.0 1.0 q
q417 1580.0 1.0 q
q418 1610.0 1.0 q
q419 1590.0 1.0 q
q420 1560.0 1.0 q
q421 1490.0 1.0 q
q422 1490.0 1.0 q
q423 1460.0 1.0 q
q426 1370.0 1.0 q
q428 1380.0 1.0 q
q429 1400.0 1.0 q
q430 1450.0 1.0 q
q431 1450.0 1.0 q
q432 1420.0 1.0 q
q433 1430.0 1.0 q
q434 1400.0 1.0 q
q435 1400.0 1.0 q
q436 1440.0 1.0 q
q437 1440.0 1.0 q
q438 1420.0 1.0 q
q439 1410.0 1.0 q
q440 1410.0 1.0 q
q441 1430.0 1.0 q
q442 1400.0 1.0 q
q443 1390.0 1.0 q
q445 1400.0 1.0 q
q446 1740.0 1.0 q
q449 1980.0 1.0 q
q450 1950.0 1.0 q
q451 1850.0 1.0 q
q452 1820.0 1.0 q
q453 1690.0 1.0 q
q454 1550.0 1.0 q
q455 1450.0 1.0 q
q456 1460.0 1.0 q
q457 1350.0 1.0 q
q458 1370.0 1.0 q
q459 1360.0 1.0 q
q460 1370.0 1.0 q
q461 1400.0 1.0 q
q462 1400.0 1.0 q
q463 1420.0 1.0 q
q464 1350.0 1.0 q
q465 1350.0 1.0 q
q466 1340.0 1.0 q
q467 1350.0 1.0 q
q468 1340.0 1.0 q
q469 1430.0 1.0 q
q471 1430.0 1.0 q
q472 1380.0 1.0 q
q473 1370.0 1.0 q
q474 1340.0 1.0 q
q475 1310.0 1.0 q
q476 1310.0 1.0 q
q477 1300.0 1.0 q
q478 1300.0 1.0 q
q479 1320.0 1.0 q
q480 1320.0 1.0 q
q481 1280.0 1.0 q
q482 1250.0 1.0 q
q483 1220.0 1.0 q
q485 1220.0 1.0 q
q486 1320.0 1.0 q
q487 1280.0 1.0 q
q488 1260.0 1.0 q
q489 1240.0 1.0 q
q490 1260.0 1.0 q
q491 1250.0 1.0 q
q492 1440.0 1.0 q
q494 1380.0 1.0 q
q496 1400.0 1.0 q
q497 1370.0 1.0 q
q498 1350.0 1.0 q
q499 1340.0 1.0 q
q500 1320.0 1.0 q
q501 1280.0 1.0 q
q502 1430.0 1.0 q
q503 1420.0 1.0 q
q504 1330.0 1.0 q
q505 1340.0 1.0 q
q506 1320.0 1.0 q
q507 1300.0 1.0 q
q508 1350.0 1.0 q
q509 1300.0 1.0 q
q510 1320.0 1.0 q
q511 1340.0 1.0 q
q512 1340.0 1.0 q
q513 1350.0 1.0 q
q514 1290.0 1.0 q
q515 1310.0 1.0 q
q516 1290.0 1.0 q
q517 1240.0 1.0 q
q518 1210.0 1.0 q
q519 1180.0 1.0 q
q520 1120.0 1.0 q
q521 1120.0 1.0 q
q522 1130.0 1.0 q
q523 1140.0 1.0 q
q524 1090.0 1.0 q
q525 1120.0 1.0 q
q526 1110.0 1.0 q
q527 1130.0 1.0 q
q528 1120.0 1.0 q
q529 1140.0 1.0 q
q530 1110.0 1.0 q
q531 1090.0 1.0 q
q532 978.0 1.0 q
q534 868.0 1.0 q
q536 892.0 1.0 q
q537 1120.0 1.0 q
q538 1250.0 1.0 q
q539 1130.0 1.0 q
q540 1110.0 1.0 q
q541 1040.0 1.0 q
q542 1120.0 1.0 q
q543 1120.0 1.0 q
q544 1100.0 1.0 q
q545 1060.0 1.0 q
q546 1040.0 1.0 q
q547 1040.0 1.0 q
q548 1070.0 1.0 q
q549 1090.0 1.0 q
q550 1140.0 1.0 q
q551 1140.0 1.0 q
q552 1140.0 1.0 q
q553 1140.0 1.0 q
q554 1100.0 1.0 q
q555 1100.0 1.0 q
q556 1110.0 1.0 q
q557 1150.0 1.0 q
q558 1100.0 1.0 q
q559 1100.0 1.0 q
q560 1060.0 1.0 q
q561 1050.0 1.0 q
q562 1030.0 1.0 q
q565 1070.0 1.0 q
q567 1260.0 1.0 q
q569 1530.0 1.0 q
q570 1420.0 1.0 q
q571 1400.0 1.0 q
q572 1390.0 1.0 q
q573 1380.0 1.0 q
q574 1410.0 1.0 q
q575 1400.0 1.0 q
q576 1410.0 1.0 q
q577 1480.0 1.0 q
q578 1470.0 1.0 q
q580 1590.0 1.0 q
q581 1790.0 1.0 q
q582 1950.0 1.0 q
q583 1830.0 1.0 q
q584 1690.0 1.0 q
q585 1750.0 1.0 q
q586 1890.0 1.0 q
q587 2080.0 1.0 q
q588 2350.0 1.0 q
q589 2500.0 1.0 q
q590 2220.0 1.0 q
q591 1900.0 1.0 q
q592 1840.0 1.0 q
q593 1740.0 1.0 q
q594 1690.0 1.0 q
q595 1640.0 1.0 q
q597 1550.0 1.0 q
q598 1660.0 1.0 q
q599 1950.0 1.0 q
q600 2380.0 1.0 q
q603 2570.0 1.0 q
q604 2410.0 1.0 q
q605 2170.0 1.0 q
q606 2120.0 1.0 q
q607 2110.0 1.0 q
q608 2380.0 1.0 q
q609 2450.0 1.0 q
q610 2280.0 1.0 q
q611 2029.9999999999998 1.0 q
q612 1990.0 1.0 q
q613 1930.0 1.0 q
q614 1920.0 1.0 q
q615 1930.0 1.0 q
q616 1990.0 1.0 q
q617 2080.0 1.0 q
q618 2210.0 1.0 q
q619 2480.0 1.0 q
q620 2730.0 1.0 q
q621 2660.0 1.0 q
q622 2510.0 1.0 q
q623 2390.0 1.0 q
q624 2560.0 1.0 q
q625 2710.0 1.0 q
q626 2560.0 1.0 q
q627 2360.0 1.0 q
q628 2260.0 1.0 q
q629 2460.0 1.0 q
q630 2820.0 1.0 q
q631 2770.0 1.0 q
q632 2510.0 1.0 q
q633 2370.0 1.0 q
q634 2210.0 1.0 q
q635 2150.0 1.0 q
q636 1850.0 1.0 q
q637 1640.0 1.0 q
q638 1620.0 1.0 q
q639 1630.0 1.0 q
q642 1770.0 1.0 q
q643 2020.0 1.0 q
q644 2560.0 1.0 q
q645 2520.0 1.0 q
q646 2370.0 1.0 q
q647 2800.0 1.0 q
q648 3400.0 1.0 q
q649 3740.0 1.0 q
q650 3910.0 1.0 q
q651 3890.0 1.0 q
q652 4040.0 1.0 q
q653 4130.0 1.0 q
q654 4190.0 1.0 q
q655 4360.0 1.0 q
q656 4810.0 1.0 q
q657 5060.0 1.0 q
q658 4960.0 1.0 q
q659 4900.0 1.0 q
q660 4940.0 1.0 q
q661 5340.0 1.0 q
q662 5290.0 1.0 q
q663 4980.0 1.0 q
q664 5280.0 1.0 q
q665 5100.0 1.0 q
q668 5090.0 1.0 q
q669 4880.0 1.0 q
q670 5050.0 1.0 q
q671 5420.0 1.0 q
q672 5800.0 1.0 q
q675 5530.0 1.0 q
q676 5040.0 1.0 q
q677 4650.0 1.0 q
q678 4300.0 1.0 q
q679 4000.0 1.0 q
q680 3780.0 1.0 q
q681 3780.0 1.0 q
q682 4420.0 1.0 q
q683 4650.0 1.0 q
q684 4760.0 1.0 q
q685 4720.0 1.0 q
q686 4750.0 1.0 q
q687 4880.0 1.0 q
q688 5200.0 1.0 q
q689 5100.0 1.0 q
q690 4960.0 1.0 q
q691 4880.0 1.0 q
q692 5080.0 1.0 q
q693 5100.0 1.0 q
q694 5050.0 1.0 q
q695 4910.0 1.0 q
q696 4800.0 1.0 q
q697 4840.0 1.0 q
q698 4840.0 1.0 q
q699 4900.0 1.0 q
q700 4940.0 1.0 q
q702 4870.0 1.0 q
q703 4550.0 1.0 q
q704 4330.0 1.0 q
q705 4240.0 1.0 q
q706 4270.0 1.0 q
q707 4140.0 1.0 q
q708 4230.0 1.0 q
q709 4220.0 1.0 q
q710 4040.0 1.0 q
q711 3840.0 1.0 q
q712 3840.0 1.0 q
q713 3840.0 1.0 q
q714 3760.0 1.0 q
q715 3770.0 1.0 q
q716 3810.0 1.0 q
q717 3840.0 1.0 q
q718 3870.0 1.0 q
q719 3980.0 1.0 q
q720 3900.0 1.0 q
q721 3820.0 1.0 q
q722 3700.0 1.0 q
q723 3570.0 1.0 q
q724 3490.0 1.0 q
q725 3490.0 1.0 q
q726 3560.0 1.0 q
q727 3240.0 1.0 q
q728 3020.0 1.0 q
q729 2850.0 1.0 q
q734 2580.0 1.0 q
q735 2570.0 1.0 q
q736 2560.0 1.0 q
q737 2430.0 1.0 q
q738 2360.0 1.0 q
q739 2400.0 1.0 q
q740 2290.0 1.0 q
q741 2270.0 1.0 q
q742 2160.0 1.0 q
q743 2080.0 1.0 q
q744 2000.0 1.0 q
q745 1840.0 1.0 q
q746 1860.0 1.0 q
q747 1850.0 1.0 q
q748 1880.0 1.0 q
q749 1860.0 1.0 q
q750 1820.0 1.0 q
q751 1790.0 1.0 q
q752 1750.0 1.0 q
q753 1680.0 1.0 q
q754 1680.0 1.0 q
q755 1670.0 1.0 q
q756 1640.0 1.0 q
q757 1650.0 1.0 q
q758 1580.0 1.0 q
q759 1570.0 1.0 q
q760 1540.0 1.0 q
q761 1520.0 1.0 q
q762 1490.0 1.0 q
q763 1470.0 1.0 q
q764 1490.0 1.0 q
q765 1470.0 1.0 q
q766 1440.0 1.0 q
q767 1480.0 1.0 q
q768 1470.0 1.0 q
q769 1510.0 1.0 q
q772 1470.0 1.0 q
q773 1440.0 1.0 q
q774 1440.0 1.0 q
q775 1440.0 1.0 q
q776 1440.0 1.0 q
q777 1390.0 1.0 q
q778 1410.0 1.0 q
q779 1400.0 1.0 q
q780 1380.0 1.0 q
q781 1340.0 1.0 q
q782 1380.0 1.0 q
q783 1350.0 1.0 q
q784 1340.0 1.0 q
q785 1350.0 1.0 q
q786 1350.0 1.0 q
q787 1430.0 1.0 q
q788 1370.0 1.0 q
q790 1340.0 1.0 q
q791 1340.0 1.0 q
q792 1330.0 1.0 q
q793 1330.0 1.0 q
q794 1340.0 1.0 q
q795 1420.0 1.0 q
q796 1320.0 1.0 q
q797 1270.0 1.0 q
q798 1260.0 1.0 q
q799 1280.0 1.0 q
q800 1250.0 1.0 q
q801 1240.0 1.0 q
q802 1330.0 1.0 q
q803 1420.0 1.0 q
q804 1310.0 1.0 q
q805 1230.0 1.0 q
q806 1220.0 1.0 q
q807 1260.0 1.0 q
q808 1250.0 1.0 q
q809 1210.0 1.0 q
q810 1180.0 1.0 q
q811 1140.0 1.0 q
q812 1120.0 1.0 q
q813 1080.0 1.0 q
q814 1070.0 1.0 q
q815 990.0 1.0 q
q817 884.0 1.0 q
q819 875.0 1.0 q
q820 1030.0 1.0 q
q821 1040.0 1.0 q
q824 952.0 1.0 q
q825 1020.0 1.0 q
q826 970.0 1.0 q
q827 1080.0 1.0 q
q828 1230.0 1.0 q
q829 1100.0 1.0 q
q830 964.0 1.0 q
q831 1470.0 1.0 q
q834 1550.0 1.0 q
q835 1520.0 1.0 q
q836 1540.0 1.0 q
q837 1470.0 1.0 q
q838 1460.0 1.0 q
q839 1410.0 1.0 q
q840 1410.0 1.0 q
q841 1400.0 1.0 q
q842 1420.0 1.0 q
q843 1350.0 1.0 q
q844 1320.0 1.0 q
q845 1310.0 1.0 q
q846 1280.0 1.0 q
q847 1220.0 1.0 q
q848 1150.0 1.0 q
q849 1150.0 1.0 q
q850 1140.0 1.0 q
q851 1100.0 1.0 q
q852 1120.0 1.0 q
q853 1100.0 1.0 q
q854 1090.0 1.0 q
q855 1090.0 1.0 q
q856 1080.0 1.0 q
q857 1080.0 1.0 q
q858 1080.0 1.0 q
q861 1080.0 1.0 q
q862 1100.0 1.0 q
q863 1070.0 1.0 q
q864 1210.0 1.0 q
q865 2240.0 1.0 q
q866 1910.0 1.0 q
q867 1960.0 1.0 q
q868 1890.0 1.0 q
q869 1750.0 1.0 q
q870 1680.0 1.0 q
q871 1690.0 1.0 q
q872 1690.0 1.0 q
q873 1680.0 1.0 q
q874 1770.0 1.0 q
q875 2050.0 1.0 q
q878 9040.0 1.0 q
q879 6630.0 1.0 q
q880 5690.0 1.0 q
q881 4960.0 1.0 q
q882 4610.0 1.0 q
q883 4180.0 1.0 q
q884 3930.0 1.0 q
q885 3920.0 1.0 q
q886 4660.0 1.0 q
q887 4380.0 1.0 q
q888 4280.0 1.0 q
q889 3940.0 1.0 q
q890 3830.0 1.0 q
q891 3720.0 1.0 q
q892 3740.0 1.0 q
q893 3770.0 1.0 q
q894 3700.0 1.0 q
q895 3710.0 1.0 q
q896 3650.0 1.0 q
q897 3630.0 1.0 q
q898 3720.0 1.0 q
q899 3720.0 1.0 q
q900 3740.0 1.0 q
q901 3890.0 1.0 q
q902 4420.0 1.0 q
q903 4810.0 1.0 q
q904 4940.0 1.0 q
q905 5440.0 1.0 q
q906 5700.0 1.0 q
q907 6180.0 1.0 q
q910 5390.0 1.0 q
q911 4650.0 1.0 q
q912 4170.0 1.0 q
q913 3800.0 1.0 q
q914 3780.0 1.0 q
q915 3540.0 1.0 q
q916 3380.0 1.0 q
q917 3510.0 1.0 q
q918 3300.0 1.0 q
q919 3160.0 1.0 q
q921 3130.0 1.0 q
q922 3130.0 1.0 q
q923 3130.0 1.0 q
q924 3220.0 1.0 q
q925 3390.0 1.0 q
q926 3770.0 1.0 q
q927 3950.0 1.0 q
q928 3880.0 1.0 q
q929 3720.0 1.0 q
q930 3730.0 1.0 q
q931 3690.0 1.0 q
q932 3630.0 1.0 q
q933 3510.0 1.0 q
q934 3410.0 1.0 q
q935 3210.0 1.0 q
q936 3590.0 1.0 q
q937 3430.0 1.0 q
q938 3290.0 1.0 q
q939 3260.0 1.0 q
q940 3530.0 1.0 q
q941 3730.0 1.0 q
q942 3520.0 1.0 q
q943 3380.0 1.0 q
q944 3230.0 1.0 q
q945 3230.0 1.0 q
q946 3160.0 1.0 q
q949 3120.0 1.0 q
q950 3130.0 1.0 q
q951 3090.0 1.0 q
q952 3080.0 1.0 q
q953 3850.0 1.0 q
q954 5200.0 1.0 q
q955 5970.0 1.0 q
q956 6350.0 1.0 q
q957 6390.0 1.0 q
q958 6050.0 1.0 q
q959 6000.0 1.0 q
q960 5800.0 1.0 q
q961 5280.0 1.0 q
q962 4840.0 1.0 q
q963 4320.0 1.0 q
q964 4310.0 1.0 q
q965 4200.0 1.0 q
q966 4760.0 1.0 q
q967 7340.0 1.0 q
q969 7320.0 1.0 q
q971 7060.0 1.0 q
q972 6530.0 1.0 q
q973 6090.0 1.0 q
q974 5890.0 1.0 q
q975 5710.0 1.0 q
q976 6140.0 1.0 q
q977 6570.0 1.0 q
q978 6670.0 1.0 q
q979 6480.0 1.0 q
q980 5900.0 1.0 q
q981 5710.0 1.0 q
q982 5360.0 1.0 q
q983 5210.0 1.0 q
q984 5150.0 1.0 q
q985 4870.0 1.0 q
q986 5010.0 1.0 q
q987 5320.0 1.0 q
q988 5150.0 1.0 q
q989 4840.0 1.0 q
q990 4480.0 1.0 q
q991 4280.0 1.0 q
q992 4070.0000000000005 1.0 q
q995 4160.0 1.0 q
q996 4630.0 1.0 q
q997 4830.0 1.0 q
q998 6310.0 1.0 q
q999 8250.0 1.0 q
q1000 9790.0 1.0 q
q1003 10600.0 1.0 q
q1004 10100.0 1.0 q
q1005 10600.0 1.0 q
q1006 11200.0 1.0 q
q1007 9730.0 1.0 q
q1008 8690.0 1.0 q
q1009 8560.0 1.0 q
q1010 8910.0 1.0 q
q1011 8280.0 1.0 q
q1014 9170.0 1.0 q
q1015 9660.0 1.0 q
q1016 10900.0 1.0 q
q1017 14300.0 1.0 q
q1018 17700.0 1.0 q
q1019 19200.0 1.0 q
q1020 20400.0 1.0 q
q1023 19500.0 1.0 q
q1024 15400.0 1.0 q
q1025 14000.0 1.0 q
q1026 12900.0 1.0 q
q1027 11800.0 1.0 q
q1028 11000.0 1.0 q
q1029 11500.0 1.0 q
q1030 11500.0 1.0 q
q1031 11900.0 1.0 q
q1032 13200.0 1.0 q
q1033 13600.0 1.0 q
q1034 13300.0 1.0 q
q1035 14600.0 1.0 q
q1036 16000.0 1.0 q
q1037 15600.0 1.0 q
q1038 14200.0 1.0 q
q1039 13900.0 1.0 q
q1040 14300.0 1.0 q
q1041 14800.0 1.0 q
q1042 14400.0 1.0 q
q1043 14100.0 1.0 q
q1046 13500.0 1.0 q
q1047 14700.0 1.0 q
q1048 16500.0 1.0 q
q1049 18400.0 1.0 q
q1050 22900.0 1.0 q
q1051 26300.0 1.0 q
q1052 26200.0 1.0 q
q1053 27000.0 1.0 q
q1054 25100.0 1.0 q
q1055 24000.0 1.0 q
q1056 23700.0 1.0 q
q1057 24500.0 1.0 q
q1058 29000.0 1.0 q
q1059 31600.0 1.0 q
q1062 30600.0 1.0 q
q1063 28700.0 1.0 q
q1064 30200.0 1.0 q
q1065 26000.0 1.0 q
q1066 23500.0 1.0 q
q1067 24500.0 1.0 q
q1068 25700.0 1.0 q
q1069 26100.0 1.0 q
q1070 23200.0 1.0 q
q1071 22900.0 1.0 q
q1072 21800.0 1.0 q
q1073 22400.0 1.0 q
q1074 20300.0 1.0 q
q1075 19800.0 1.0 q
q1076 21500.0 1.0 q
q1077 23700.0 1.0 q
q1079 26200.0 1.0 q
q1080 24700.0 1.0 q
q1081 24400.0 1.0 q
q1082 24200.0 1.0 q
q1083 24000.0 1.0 q
q1084 21800.0 1.0 q
q1085 19700.0 1.0 q
q1086 18900.0 1.0 q
q1087 17600.0 1.0 q
q1088 16500.0 1.0 q
q1089 16200.0 1.0 q
q1090 15500.0 1.0 q
q1091 14900.0 1.0 q
q1092 15300.0 1.0 q
q1093 15300.0 1.0 q
q1094 14900.0 1.0 q
q1095 14600.0 1.0 q
q1099 13800.0 1.0 q
q1100 13400.0 1.0 q
q1101 12700.0 1.0 q
q1102 12200.0 1.0 q
q1103 11800.0 1.0 q
q1104 11500.0 1.0 q
q1105 11400.0 1.0 q
q1106 11300.0 1.0 q
q1107 11200.0 1.0 q
q1108 11100.0 1.0 q
q1109 11200.0 1.0 q
q1110 11100.0 1.0 q
q1111 11100.0 1.0 q
q1112 10800.0 1.0 q
q1113 10600.0 1.0 q
q1114 10400.0 1.0 q
q1115 10200.0 1.0 q
q1116 10100.0 1.0 q
q1117 10100.0 1.0 q
q1118 10200.0 1.0 q
q1119 9590.0 1.0 q
q1120 8940.0 1.0 q
q1121 8730.0 1.0 q
q1122 8640.0 1.0 q
q1123 8460.0 1.0 q
q1124 8390.0 1.0 q
q1125 8189.999999999999 1.0 q
q1126 7990.0 1.0 q
q1127 7750.0 1.0 q
q1130 7200.0 1.0 q
q1131 7130.0 1.0 q
q1132 7170.0 1.0 q
q1133 7140.0 1.0 q
q1134 6970.0 1.0 q
q1135 6960.0 1.0 q
q1136 6960.0 1.0 q
q1137 6910.0 1.0 q
q1138 6730.0 1.0 q
q1139 6650.0 1.0 q
q1140 6660.0 1.0 q
q1141 6550.0 1.0 q
q1142 6500.0 1.0 q
q1143 6400.0 1.0 q
q1144 6270.0 1.0 q
q1145 5990.0 1.0 q
q1146 5940.0 1.0 q
q1147 5910.0 1.0 q
q1148 5800.0 1.0 q
q1149 5680.0 1.0 q
q1150 5350.0 1.0 q
q1151 5220.0 1.0 q
q1152 5110.0 1.0 q
q1153 4790.0 1.0 q
q1157 4220.0 1.0 q
q1158 4140.0 1.0 q
q1159 4150.0 1.0 q
q1160 4150.0 1.0 q
q1161 4040.0 1.0 q
q1162 4140.0 1.0 q
q1164 4140.0 1.0 q
q1165 3980.0 1.0 q
q1166 3910.0 1.0 q
q1167 3850.0 1.0 q
q1168 3750.0 1.0 q
q1169 3700.0 1.0 q
q1170 3670.0 1.0 q
q1171 3650.0 1.0 q
q1172 3560.0 1.0 q
q1173 3550.0 1.0 q
q1174 3450.0 1.0 q
q1175 3300.0 1.0 q
q1176 3310.0 1.0 q
q1177 3230.0 1.0 q
q1178 3260.0 1.0 q
q1179 3170.0 1.0 q
q1180 3140.0 1.0 q
q1181 3150.0 1.0 q
q1182 3080.0 1.0 q
q1184 3110.0 1.0 q
q1186 3060.0 1.0 q
q1187 3060.0 1.0 q
q1188 3080.0 1.0 q
q1189 3050.0 1.0 q
q1190 3020.0 1.0 q
q1191 3070.0 1.0 q
q1192 3050.0 1.0 q
q1193 2970.0 1.0 q
q1194 2990.0 1.0 q
q1195 2990.0 1.0 q
q1196 2970.0 1.0 q
q1197 2950.0 1.0 q
q1198 2860.0 1.0 q
q1199 2840.0 1.0 q
q1200 2800.0 1.0 q
q1201 2820.0 1.0 q
q1202 2820.0 1.0 q
q1203 2860.0 1.0 q
q1204 2870.0 1.0 q
q1205 2860.0 1.0 q
q1206 2870.0 1.0 q
q1207 2830.0 1.0 q
q1208 2790.0 1.0 q
q1209 2800.0 1.0 q
q1210 2810.0 1.0 q
q1211 2770.0 1.0 q
q1212 2670.0 1.0 q
q1213 2640.0 1.0 q
q1214 2590.0 1.0 q
q1217 2530.0 1.0 q
q1218 2490.0 1.0 q
q1219 2540.0 1.0 q
q1220 2520.0 1.0 q
q1221 2480.0 1.0 q
q1222 2440.0 1.0 q
q1223 2380.0 1.0 q
q1224 2340.0 1.0 q
q1225 2390.0 1.0 q
q1226 2400.0 1.0 q
q1227 2390.0 1.0 q
q1228 2360.0 1.0 q
q1229 2410.0 1.0 q
q1230 2340.0 1.0 q
q1231 2310.0 1.0 q
q1232 2320.0 1.0 q
q1233 2290.0 1.0 q
q1236 2360.0 1.0 q
q1237 2350.0 1.0 q
q1238 3140.0 1.0 q
q1241 3120.0 1.0 q
q1242 3090.0 1.0 q
q1243 3050.0 1.0 q
q1244 3070.0 1.0 q
q1245 2970.0 1.0 q
q1246 3150.0 1.0 q
q1247 3080.0 1.0 q
q1248 3210.0 1.0 q
q1249 3130.0 1.0 q
q1250 2930.0 1.0 q
q1251 3170.0 1.0 q
q1252 3020.0 1.0 q
q1253 3030.0 1.0 q
q1254 3020.0 1.0 q
q1255 2920.0 1.0 q
q1256 3040.0 1.0 q
q1257 2900.0 1.0 q
q1258 3070.0 1.0 q
q1259 3170.0 1.0 q
q1260 3210.0 1.0 q
q1261 3290.0 1.0 q
q1262 3180.0 1.0 q
q1263 3240.0 1.0 q
q1264 3290.0 1.0 q
q1265 3340.0 1.0 q
q1267 3360.0 1.0 q
q1269 3290.0 1.0 q
q1270 3350.0 1.0 q
q1271 3280.0 1.0 q
q1272 2930.0 1.0 q
q1273 2610.0 1.0 q
q1274 2460.0 1.0 q
q1275 2320.0 1.0 q
q1278 2050.0 1.0 q
q1279 2120.0 1.0 q
q1280 2200.0 1.0 q
q1281 2200.0 1.0 q
q1282 2280.0 1.0 q
q1283 2420.0 1.0 q
q1284 2390.0 1.0 q
q1285 2510.0 1.0 q
q1286 2710.0 1.0 q
q1287 2410.0 1.0 q
q1288 2500.0 1.0 q
q1289 2570.0 1.0 q
q1290 2710.0 1.0 q
q1292 2720.0 1.0 q
q1293 2720.0 1.0 q
q1294 2700.0 1.0 q
q1295 2790.0 1.0 q
q1296 2830.0 1.0 q
q1298 2810.0 1.0 q
q1299 2660.0 1.0 q
q1300 2540.0 1.0 q
q1301 2380.0 1.0 q
q1302 2280.0 1.0 q
q1303 2150.0 1.0 q
q1304 2130.0 1.0 q
q1305 2110.0 1.0 q
q1306 1980.0 1.0 q
q1309 1790.0 1.0 q
q1310 1810.0 1.0 q
q1311 1780.0 1.0 q
q1312 1760.0 1.0 q
q1313 1780.0 1.0 q
q1314 1770.0 1.0 q
q1315 1710.0 1.0 q
q1316 1680.0 1.0 q
q1317 1670.0 1.0 q
q1318 1690.0 1.0 q
q1319 1740.0 1.0 q
q1320 1760.0 1.0 q
q1321 1790.0 1.0 q
q1322 1760.0 1.0 q
q1323 1740.0 1.0 q
q1324 1740.0 1.0 q
q1325 1760.0 1.0 q
q1326 1760.0 1.0 q
q1327 1760.0 1.0 q
q1328 1720.0 1.0 q
q1329 1690.0 1.0 q
q1330 1680.0 1.0 q
q1331 1710.0 1.0 q
q1332 1710.0 1.0 q
q1333 1630.0 1.0 q
q1334 1600.0 1.0 q
q1335 1590.0 1.0 q
q1336 1590.0 1.0 q
q1337 1600.0 1.0 q
q1338 1600.0 1.0 q
q1340 1610.0 1.0 q
q1341 1700.0 1.0 q
q1342 1770.0 1.0 q
q1343 1850.0 1.0 q
q1344 1760.0 1.0 q
q1345 1780.0 1.0 q
q1346 1750.0 1.0 q
q1347 1750.0 1.0 q
q1348 1770.0 1.0 q
q1349 1700.0 1.0 q
q1350 1670.0 1.0 q
q1351 1680.0 1.0 q
q1352 1740.0 1.0 q
q1353 1850.0 1.0 q
q1354 1790.0 1.0 q
q1355 1890.0 1.0 q
q1356 1860.0 1.0 q
q1357 1880.0 1.0 q
q1358 1810.0 1.0 q
q1359 1790.0 1.0 q
q1360 1890.0 1.0 q
q1362 1850.0 1.0 q
q1364 1590.0 1.0 q
q1366 1710.0 1.0 q
q1367 1600.0 1.0 q
q1368 1730.0 1.0 q
q1369 1610.0 1.0 q
q1370 1670.0 1.0 q
q1371 1600.0 1.0 q
q1372 1630.0 1.0 q
q1374 1630.0 1.0 q
q1376 1760.0 1.0 q
q1377 1740.0 1.0 q
q1378 1980.0 1.0 q
q1379 2100.0 1.0 q
q1380 2240.0 1.0 q
q1381 2450.0 1.0 q
q1382 2530.0 1.0 q
q1385 2620.0 1.0 q
q1386 2350.0 1.0 q
q1387 2390.0 1.0 q
q1388 2480.0 1.0 q
q1389 2580.0 1.0 q
q1390 2550.0 1.0 q
q1391 2480.0 1.0 q
q1392 2490.0 1.0 q
q1393 2330.0 1.0 q
q1394 2080.0 1.0 q
q1395 1970.0 1.0 q
q1396 1960.0 1.0 q
q1397 1970.0 1.0 q
q1398 2200.0 1.0 q
q1399 2420.0 1.0 q
q1400 2510.0 1.0 q
q1403 2270.0 1.0 q
q1404 2220.0 1.0 q
q1405 2070.0 1.0 q
q1406 1980.0 1.0 q
q1407 1950.0 1.0 q
q1408 1990.0 1.0 q
q1409 1990.0 1.0 q
q1410 1980.0 1.0 q
q1411 1940.0 1.0 q
q1412 1880.0 1.0 q
q1413 1860.0 1.0 q
q1414 1860.0 1.0 q
q1415 1830.0 1.0 q
q1416 1830.0 1.0 q
q1417 2080.0 1.0 q
q1418 2070.0 1.0 q
q1419 1910.0 1.0 q
q1420 1800.0 1.0 q
q1421 1760.0 1.0 q
q1422 1730.0 1.0 q
q1423 1690.0 1.0 q
q1424 1660.0 1.0 q
q1425 1730.0 1.0 q
q1426 1750.0 1.0 q
q1427 1690.0 1.0 q
q1428 1690.0 1.0 q
q1429 1630.0 1.0 q
q1430 1610.0 1.0 q
q1431 1570.0 1.0 q
q1432 1550.0 1.0 q
q1433 1530.0 1.0 q
q1434 1550.0 1.0 q
q1435 1550.0 1.0 q
q1436 1540.0 1.0 q
q1437 1570.0 1.0 q
q1438 1590.0 1.0 q
q1439 1570.0 1.0 q
q1441 1580.0 1.0 q
q1442 1510.0 1.0 q
q1443 1440.0 1.0 q
q1444 1460.0 1.0 q
q1445 1410.0 1.0 q
q1446 1390.0 1.0 q
q1447 1380.0 1.0 q
q1448 1350.0 1.0 q
q1449 1330.0 1.0 q
q1450 1310.0 1.0 q
q1451 1310.0 1.0 q
q1452 1290.0 1.0 q
q1453 1300.0 1.0 q
q1454 1260.0 1.0 q
q1456 1270.0 1.0 q
q1457 1490.0 1.0 q
q1458 1410.0 1.0 q
q1459 1300.0 1.0 q
q1461 1330.0 1.0 q
q1462 1260.0 1.0 q
q1463 1290.0 1.0 q
q1464 1370.0 1.0 q
q1465 1380.0 1.0 q
q1466 1260.0 1.0 q
q1467 1190.0 1.0 q
q1468 1170.0 1.0 q
q1469 1180.0 1.0 q
q1470 1230.0 1.0 q
q1471 1290.0 1.0 q
q1472 1330.0 1.0 q
q1473 1250.0 1.0 q
q1474 1150.0 1.0 q
q1475 1130.0 1.0 q
q1476 922.0 1.0 q
q1477 994.0 1.0 q
q1480 1320.0 1.0 q
q1481 1060.0 1.0 q
q1482 955.0 1.0 q
q1483 935.0 1.0 q
q1484 1020.0 1.0 q
q1485 1220.0 1.0 q
q1486 1310.0 1.0 q
q1487 1120.0 1.0 q
q1488 921.0 1.0 q
q1489 871.0 1.0 q
q1490 858.0 1.0 q
q1492 924.0 1.0 q
q1493 966.0 1.0 q
q1495 895.0 1.0 q
q1496 872.0 1.0 q
q1497 872.0 1.0 q
q1498 955.0 1.0 q
q1499 983.0 1.0 q
q1500 999.0 1.0 q
q1501 978.0 1.0 q
q1502 965.0 1.0 q
q1503 955.0 1.0 q
q1504 955.0 1.0 q
q1505 983.0 1.0 q
q1506 1010.0 1.0 q
q1507 1010.0 1.0 q
q1508 1010.0 1.0 q
q1509 999.0 1.0 q
q1510 1000.0 1.0 q
q1511 955.0 1.0 q
q1512 986.0 1.0 q
q1513 1030.0 1.0 q
q1516 1080.0 1.0 q
q1517 1050.0 1.0 q
q1518 1040.0 1.0 q
q1519 1050.0 1.0 q
q1520 1070.0 1.0 q
q1521 1070.0 1.0 q
q1522 1050.0 1.0 q
q1523 1030.0 1.0 q
q1524 997.0 1.0 q
q1525 1010.0 1.0 q
q1526 1010.0 1.0 q
q1527 1020.0 1.0 q
q1528 1010.0 1.0 q
q1529 998.0 1.0 q
q1530 965.0 1.0 q
q1531 940.0 1.0 q
q1532 946.0 1.0 q
q1533 949.0 1.0 q
q1534 955.0 1.0 q
q1535 955.0 1.0 q
q1536 946.0 1.0 q
q1537 923.0 1.0 q
q1538 901.0 1.0 q
q1539 891.0 1.0 q
q1540 893.0 1.0 q
q1541 923.0 1.0 q
q1542 937.0 1.0 q
q1543 940.0 1.0 q
q1544 896.0 1.0 q
q1545 891.0 1.0 q
q1547 891.0 1.0 q
q1548 1000.0 1.0 q
q1549 1010.0 1.0 q
q1550 973.0 1.0 q
q1551 923.0 1.0 q
q1552 956.0 1.0 q
q1553 1070.0 1.0 q
q1554 1050.0 1.0 q
q1555 1110.0 1.0 q
q1556 1130.0 1.0 q
q1557 1020.0 1.0 q
q1558 923.0 1.0 q
q1559 900.0 1.0 q
q1560 891.0 1.0 q
q1561 906.0 1.0 q
q1562 993.0 1.0 q
q1563 1010.0 1.0 q
q1564 978.0 1.0 q
q1565 908.0 1.0 q
q1566 891.0 1.0 q
q1567 891.0 1.0 q
q1568 906.0 1.0 q