pcf
* control data
restart estimation
42    10095      18       0       2
2    2 single point   1   0   0
10.0  -3  0.3  0.03  10  lamforgive derforgive
10.0  10.0  0.001
0.1  noaui
50  0.005  4  4  0.005  4
1  1  1  PARSAVEITN
* singular value decomposition
1
42 5E-06
1
* parameter groups
ddsd         relative 0.025  0.0  switch  2.0 parabolic 1.0e-4 0.5 smaller
ddsw         relative 0.025  0.0  switch  2.0 parabolic 1.0e-4 0.5 smaller
ddgd         relative 0.025  0.0  switch  2.0 parabolic 1.0e-4 0.5 smaller
ddgw         relative 0.025  0.0  switch  2.0 parabolic 1.0e-4 0.5 smaller
rcsd         relative 0.025  0.0  switch  2.0 parabolic 1.0e-4 0.5 smaller
rcsw         relative 0.025  0.0  switch  2.0 parabolic 1.0e-4 0.5 smaller
rcrd         relative 0.025  0.0  switch  2.0 parabolic 1.0e-4 0.5 smaller
rcrw         relative 0.025  0.0  switch  2.0 parabolic 1.0e-4 0.5 smaller
rcgd         relative 0.025  0.0  switch  2.0 parabolic 1.0e-4 0.5 smaller
rcgw         relative 0.025  0.0  switch  2.0 parabolic 1.0e-4 0.5 smaller
tl           relative 0.025  0.0  switch  2.0 parabolic 1.0e-4 0.5 smaller
xw           relative 0.025  0.0  switch  2.0 parabolic 1.0e-4 0.5 smaller
yw           relative 0.03  0.0  switch  2.0 parabolic 1.0e-4 0.5 smaller
x           relative 0.025  0.0  switch  2.0 parabolic 1.0e-4 0.5 smaller
y            relative 0.025  0.0  switch  2.0 parabolic 1.0e-4 0.5 smaller
tlr			 relative 0.5  0.0  switch  2.0 parabolic 1.0e-4 0.5 smaller
tls			 relative 0.5  0.0  switch  2.0 parabolic 1.0e-4 0.5 smaller
beta			 relative 0.025  0.0  switch  2.0 parabolic 1.0e-4 0.5 smaller
* parameter data
ddsd	log	factor   0.2871300      1.00e-01	2.1	ddsd	1	0	1
ddsw	log	factor   0.2301400      1.00e-01	2.1	ddsw	1	0	1
ddgd	log	factor    1.585609      1.00e-08	2.1	ddgd	1	0	1
ddgw	log	factor   0.1877398      1.00e-08	2.1	ddgw	1	0	1
rcs1d	log	factor    2.000000      1.00e-08	2	rcsd	1	0	1
rcs1w	log	factor    2.000000      1.00e-08	2	rcsw	1	0	1
rcs2d	log	factor    2.000000      1.00e-08	2	rcsd	1	0	1
rcs2w	log	factor    2.000000      1.00e-08	2	rcsw	1	0	1
rcs3d	log	factor   1.1237974E-02  1.00e-08	2	rcsd	1	0	1
rcs3w	log	factor   0.7095428      1.00e-08	2	rcsw	1	0	1
rcs4d	log	factor   1.7027849E-03  1.00e-08	2	rcsd	1	0	1
rcs4w	log	factor   1.9900724E-03  1.00e-08	2	rcsw	1	0	1
rcs5d	log	factor   0.9046437      1.00e-08	2	rcsd	1	0	1
rcs5w	log	factor    1.413997      1.00e-08	2	rcsw	1	0	1
rcs6d	log	factor   2.2004121E-02  1.00e-08	2	rcsd	1	0	1
rcs6w	log	factor    2.000000      1.00e-08	2	rcsw	1	0	1
rcs7d	log	factor   4.9404009E-03  1.00e-08	2	rcsd	1	0	1
rcs7w	log	factor    2.000000      1.00e-08	2	rcsw	1	0	1
rcr1d	log	factor    2.000000      1.00e-08	2	rcrd	1	0	1
rcr1w	log	factor    1.693666      1.00e-08	2	rcrw	1	0	1
rcr2d	log	factor   0.1036747      1.00e-08	2	rcrd	1	0	1
rcr2w	log	factor   1.0352389E-02  1.00e-08	2	rcrw	1	0	1
rcr3d	log	factor   3.9041752E-03  1.00e-08	2	rcrd	1	0	1
rcr3w	log	factor   5.2697620E-03  1.00e-08	2	rcrw	1	0	1
rcr4d	log	factor   1.6609191E-03  1.00e-08	2	rcrd	1	0	1
rcr4w	log	factor   1.3732826E-03  1.00e-08	2	rcrw	1	0	1
rcr5d	log	factor   3.3200859E-03  1.00e-08	2	rcrd	1	0	1
rcr5w	log	factor   5.2041455E-03  1.00e-08	2	rcrw	1	0	1
rcr6d	log	factor   1.2448492E-02  1.00e-08	2	rcrd	1	0	1
rcr6w	log	factor   2.8207164E-02  1.00e-08	2	rcrw	1	0	1
rcr7d	log	factor   1.1699713E-02  1.00e-08	2	rcrd	1	0	1
rcr7w	log	factor   1.2453562E-02  1.00e-08	2	rcrw	1	0	1
rcgd	log	factor   3.9814516E-02  1.00e-08	2	rcgd	1	0	1
rcgw	log	factor   0.8919134      1.00e-08	2	rcgw	1	0	1
tl	log	factor    5.000000      1.00e-08	5	tl	1	0	1
xw	log	factor   0.9523951      1.00e-08	2.1	xw	1	0	1
yw	log	factor   2.5432844E-04  1.00e-08	1	yw	1	0	1
x	log	factor    1.156447      1.00e-08	2.3	x	1	0	1
y	log	factor   2.8469426E-02  1.00e-08	1	y	1	0	1
tlr	log	factor   6.8200000E-02  1.00e-08	10	tlr	1	0	1
tls	log	factor   0.2220000      1.00e-08	30	tls	1	0	1
beta	log	factor   0.4100000      2.00e-01	4.1e-01	beta	1	0	1
* observation groups
q
swe
* observation data
 q1                    1050.000       0.707107      q
 q2                    1000.000       0.707107      q
 q3                    862.0000       0.707107      q
 q4                    891.0000       0.707107      q
 q5                    935.0000       0.707107      q
 q6                    961.0000       0.707107      q
 q7                    1000.000       0.707107      q
 q8                    1030.000       0.707107      q
 q9                    992.0000       0.707107      q
 q10                   874.0000       0.707107      q
 q11                   878.0000       0.707107      q
 q12                   943.0000       0.707107      q
 q13                   975.0000       0.707107      q
 q14                   977.0000       0.707107      q
 q15                   1010.000       0.707107      q
 q16                   1010.000       0.707107      q
 q17                   902.0000       0.707107      q
 q18                   867.0000       0.707107      q
 q19                   913.0000       0.707107      q
 q20                   918.0000       0.707107      q
 q21                   945.0000       0.707107      q
 q22                   1000.000       0.707107      q
 q23                   980.0000       0.707107      q
 q24                   846.0000       0.707107      q
 q25                   853.0000       0.707107      q
 q26                   893.0000       0.707107      q
 q27                   864.0000       0.707107      q
 q28                   898.0000       0.707107      q
 q29                   950.0000       0.707107      q
 q30                   905.0000       0.707107      q
 q31                   792.0000       0.707107      q
 q32                   794.0000       0.707107      q
 q33                   806.0000       0.707107      q
 q34                   817.0000       0.707107      q
 q37                   866.0000       0.707107      q
 q38                   1070.000       0.707107      q
 q40                   1100.000       0.707107      q
 q41                   1090.000       0.707107      q
 q42                   1100.000       0.707107      q
 q44                   1090.000       0.707107      q
 q45                   944.0000       0.707107      q
 q46                   879.0000       0.707107      q
 q47                   907.0000       0.707107      q
 q48                   967.0000       0.707107      q
 q49                   1030.000       0.707107      q
 q50                   1040.000       0.707107      q
 q51                   1040.000       0.707107      q
 q52                   1020.000       0.707107      q
 q53                   1030.000       0.707107      q
 q54                   986.0000       0.707107      q
 q55                   893.0000       0.707107      q
 q56                   860.0000       0.707107      q
 q57                   886.0000       0.707107      q
 q58                   984.0000       0.707107      q
 q59                   1010.000       0.707107      q
 q60                   915.0000       0.707107      q
 q61                   992.0000       0.707107      q
 q62                   997.0000       0.707107      q
 q63                   981.0000       0.707107      q
 q64                   968.0000       0.707107      q
 q65                   872.0000       0.707107      q
 q66                   806.0000       0.707107      q
 q67                   798.0000       0.707107      q
 q68                   844.0000       0.707107      q
 q69                   945.0000       0.707107      q
 q70                   952.0000       0.707107      q
 q71                   952.0000       0.707107      q
 q72                   946.0000       0.707107      q
 q73                   924.0000       0.707107      q
 q74                   937.0000       0.707107      q
 q75                   895.0000       0.707107      q
 q76                   816.0000       0.707107      q
 q77                   790.0000       0.707107      q
 q78                   851.0000       0.707107      q
 q79                   915.0000       0.707107      q
 q80                   957.0000       0.707107      q
 q81                   925.0000       0.707107      q
 q82                   893.0000       0.707107      q
 q83                   897.0000       0.707107      q
 q84                   881.0000       0.707107      q
 q85                   819.0000       0.707107      q
 q88                   818.0000       0.707107      q
 q89                   873.0000       0.707107      q
 q90                   893.0000       0.707107      q
 q91                   893.0000       0.707107      q
 q92                   907.0000       0.707107      q
 q93                   918.0000       0.707107      q
 q94                   939.0000       0.707107      q
 q95                   847.0000       0.707107      q
 q97                   814.0000       0.707107      q
 q98                   852.0000       0.707107      q
 q99                   908.0000       0.707107      q
 q100                  898.0000       0.707107      q
 q101                  882.0000       0.707107      q
 q102                  879.0000       0.707107      q
 q103                  876.0000       0.707107      q
 q104                  880.0000       0.707107      q
 q107                  1070.000       0.707107      q
 q108                  996.0000       0.707107      q
 q109                  1000.000       0.707107      q
 q110                  944.0000       0.707107      q
 q111                  934.0000       0.707107      q
 q112                  917.0000       0.707107      q
 q113                  889.0000       0.707107      q
 q114                  852.0000       0.707107      q
 q115                  785.0000       0.707107      q
 q116                  777.0000       0.707107      q
 q117                  788.0000       0.707107      q
 q118                  840.0000       0.707107      q
 q119                  878.0000       0.707107      q
 q120                  885.0000       0.707107      q
 q121                  895.0000       0.707107      q
 q122                  930.0000       0.707107      q
 q123                  925.0000       0.707107      q
 q124                  911.0000       0.707107      q
 q125                  831.0000       0.707107      q
 q127                  887.0000       0.707107      q
 q128                  942.0000       0.707107      q
 q129                  987.0000       0.707107      q
 q130                  984.0000       0.707107      q
 q131                  1000.000       0.707107      q
 q132                  1010.000       0.707107      q
 q133                  1010.000       0.707107      q
 q134                  978.0000       0.707107      q
 q135                  967.0000       0.707107      q
 q136                  989.0000       0.707107      q
 q137                  955.0000       0.707107      q
 q138                  995.0000       0.707107      q
 q139                  993.0000       0.707107      q
 q140                  1000.000       0.707107      q
 q141                  960.0000       0.707107      q
 q142                  969.0000       0.707107      q
 q143                  937.0000       0.707107      q
 q144                  952.0000       0.707107      q
 q145                  903.0000       0.707107      q
 q146                  903.0000       0.707107      q
 q147                  870.0000       0.707107      q
 q148                  923.0000       0.707107      q
 q149                  930.0000       0.707107      q
 q150                  931.0000       0.707107      q
 q151                  899.0000       0.707107      q
 q152                  897.0000       0.707107      q
 q153                  921.0000       0.707107      q
 q154                  908.0000       0.707107      q
 q155                  852.0000       0.707107      q
 q157                  837.0000       0.707107      q
 q158                  908.0000       0.707107      q
 q159                  920.0000       0.707107      q
 q160                  968.0000       0.707107      q
 q161                  902.0000       0.707107      q
 q162                  920.0000       0.707107      q
 q163                  897.0000       0.707107      q
 q164                  833.0000       0.707107      q
 q166                  934.0000       0.707107      q
 q167                  900.0000       0.707107      q
 q168                  993.0000       0.707107      q
 q169                  985.0000       0.707107      q
 q170                  951.0000       0.707107      q
 q171                  968.0000       0.707107      q
 q172                  1020.000       0.707107      q
 q173                  1010.000       0.707107      q
 q174                  991.0000       0.707107      q
 q175                  1020.000       0.707107      q
 q176                  1070.000       0.707107      q
 q177                  1040.000       0.707107      q
 q180                  978.0000       0.707107      q
 q181                  973.0000       0.707107      q
 q182                  1010.000       0.707107      q
 q183                  1070.000       0.707107      q
 q184                  989.0000       0.707107      q
 q187                  926.0000       0.707107      q
 q188                  1050.000       0.707107      q
 q189                  1100.000       0.707107      q
 q190                  1050.000       0.707107      q
 q191                  1010.000       0.707107      q
 q192                  952.0000       0.707107      q
 q193                  927.0000       0.707107      q
 q194                  1160.000       0.707107      q
 q195                  1250.000       0.707107      q
 q196                  1310.000       0.707107      q
 q197                  1350.000       0.707107      q
 q198                  1400.000       0.707107      q
 q199                  1550.000       0.707107      q
 q200                  1620.000       0.707107      q
 q201                  1620.000       0.707107      q
 q202                  1670.000       0.707107      q
 q203                  1730.000       0.707107      q
 q204                  1560.000       0.707107      q
 q205                  1740.000       0.707107      q
 q206                  2100.000       0.707107      q
 q207                  2430.000       0.707107      q
 q208                  2620.000       0.707107      q
 q210                  2610.000       0.707107      q
 q211                  2460.000       0.707107      q
 q212                  2540.000       0.707107      q
 q214                  2640.000       0.707107      q
 q215                  2590.000       0.707107      q
 q216                  2510.000       0.707107      q
 q217                  2330.000       0.707107      q
 q218                  2190.000       0.707107      q
 q219                  2280.000       0.707107      q
 q220                  2520.000       0.707107      q
 q221                  2690.000       0.707107      q
 q224                  2590.000       0.707107      q
 q225                  2320.000       0.707107      q
 q226                  2070.000       0.707107      q
 q227                  1880.000       0.707107      q
 q228                  1720.000       0.707107      q
 q229                  1650.000       0.707107      q
 q230                  1640.000       0.707107      q
 q231                  1700.000       0.707107      q
 q232                  1930.000       0.707107      q
 q233                  2110.000       0.707107      q
 q234                  2230.000       0.707107      q
 q235                  1990.000       0.707107      q
 q236                  1850.000       0.707107      q
 q237                  1690.000       0.707107      q
 q238                  1600.000       0.707107      q
 q239                  1490.000       0.707107      q
 q240                  1430.000       0.707107      q
 q241                  1380.000       0.707107      q
 q243                  1360.000       0.707107      q
 q247                  1580.000       0.707107      q
 q248                  1650.000       0.707107      q
 q249                  1630.000       0.707107      q
 q250                  1780.000       0.707107      q
 q251                  1910.000       0.707107      q
 q252                  1900.000       0.707107      q
 q253                  1800.000       0.707107      q
 q254                  1890.000       0.707107      q
 q255                  2020.000       0.707107      q
 q256                  1900.000       0.707107      q
 q257                  1950.000       0.707107      q
 q258                  1800.000       0.707107      q
 q259                  1830.000       0.707107      q
 q260                  1990.000       0.707107      q
 q261                  2480.000       0.707107      q
 q262                  2280.000       0.707107      q
 q263                  2470.000       0.707107      q
 q264                  2730.000       0.707107      q
 q265                  2700.000       0.707107      q
 q266                  3370.000       0.707107      q
 q267                  4910.000       0.707107      q
 q268                  4580.000       0.707107      q
 q269                  4410.000       0.707107      q
 q270                  4720.000       0.707107      q
 q271                  5560.000       0.707107      q
 q274                  5990.000       0.707107      q
 q275                  6070.000       0.707107      q
 q276                  6170.000       0.707107      q
 q277                  5100.000       0.707107      q
 q278                  4480.000       0.707107      q
 q279                  4540.000       0.707107      q
 q280                  5580.000       0.707107      q
 q281                  6650.000       0.707107      q
 q282                  7060.000       0.707107      q
 q283                  6700.000       0.707107      q
 q284                  5890.000       0.707107      q
 q285                  5490.000       0.707107      q
 q286                  5440.000       0.707107      q
 q287                  5650.000       0.707107      q
 q288                  5930.000       0.707107      q
 q289                  6050.000       0.707107      q
 q290                  6300.000       0.707107      q
 q291                  6710.000       0.707107      q
 q292                  6930.000       0.707107      q
 q293                  7150.000       0.707107      q
 q294                  8090.000       0.707107      q
 q297                  8680.000       0.707107      q
 q298                  7870.000       0.707107      q
 q299                  6970.000       0.707107      q
 q300                  6190.000       0.707107      q
 q301                  6180.000       0.707107      q
 q302                  6830.000       0.707107      q
 q303                  7410.000       0.707107      q
 q304                  8010.000       0.707107      q
 q305                  7230.000       0.707107      q
 q306                  6510.000       0.707107      q
 q307                  6000.000       0.707107      q
 q308                  5650.000       0.707107      q
 q309                  5250.000       0.707107      q
 q310                  4880.000       0.707107      q
 q311                  4860.000       0.707107      q
 q312                  4530.000       0.707107      q
 q313                  4310.000       0.707107      q
 q314                  4210.000       0.707107      q
 q315                  4340.000       0.707107      q
 q316                  4120.000       0.707107      q
 q319                  4100.000       0.707107      q
 q320                  4320.000       0.707107      q
 q321                  4720.000       0.707107      q
 q322                  5880.000       0.707107      q
 q323                  7550.000       0.707107      q
 q324                  8380.000       0.707107      q
 q325                  8840.000       0.707107      q
 q326                  9440.000       0.707107      q
 q327                  10000.00       0.707107      q
 q328                  10100.00       0.707107      q
 q329                  10500.00       0.707107      q
 q330                  11100.00       0.707107      q
 q331                  12100.00       0.707107      q
 q334                  12400.00       0.707107      q
 q335                  11900.00       0.707107      q
 q337                  10500.00       0.707107      q
 q338                  9980.000       0.707107      q
 q339                  9500.000       0.707107      q
 q340                  8840.000       0.707107      q
 q341                  8620.000       0.707107      q
 q342                  9050.000       0.707107      q
 q343                  8440.000       0.707107      q
 q344                  8090.000       0.707107      q
 q345                  8160.000       0.707107      q
 q346                  8090.000       0.707107      q
 q347                  7710.000       0.707107      q
 q348                  7360.000       0.707107      q
 q349                  7170.000       0.707107      q
 q350                  6930.000       0.707107      q
 q351                  6570.000       0.707107      q
 q352                  6460.000       0.707107      q
 q353                  6490.000       0.707107      q
 q354                  6450.000       0.707107      q
 q355                  6410.000       0.707107      q
 q356                  6210.000       0.707107      q
 q357                  5960.000       0.707107      q
 q358                  5730.000       0.707107      q
 q359                  5440.000       0.707107      q
 q360                  5310.000       0.707107      q
 q361                  5030.000       0.707107      q
 q362                  4780.000       0.707107      q
 q363                  4610.000       0.707107      q
 q364                  4450.000       0.707107      q
 q365                  4330.000       0.707107      q
 q369                  3750.000       0.707107      q
 q370                  3530.000       0.707107      q
 q371                  3530.000       0.707107      q
 q372                  3570.000       0.707107      q
 q373                  3410.000       0.707107      q
 q374                  3210.000       0.707107      q
 q375                  3160.000       0.707107      q
 q376                  3110.000       0.707107      q
 q377                  3090.000       0.707107      q
 q378                  3060.000       0.707107      q
 q379                  3050.000       0.707107      q
 q380                  2820.000       0.707107      q
 q381                  2740.000       0.707107      q
 q382                  2640.000       0.707107      q
 q383                  2540.000       0.707107      q
 q384                  2500.000       0.707107      q
 q385                  2440.000       0.707107      q
 q386                  2450.000       0.707107      q
 q387                  2380.000       0.707107      q
 q388                  2330.000       0.707107      q
 q389                  2300.000       0.707107      q
 q390                  2290.000       0.707107      q
 q391                  2250.000       0.707107      q
 q392                  2210.000       0.707107      q
 q393                  2200.000       0.707107      q
 q394                  2220.000       0.707107      q
 q395                  2100.000       0.707107      q
 q396                  2060.000       0.707107      q
 q397                  1980.000       0.707107      q
 q398                  1970.000       0.707107      q
 q399                  1950.000       0.707107      q
 q400                  2030.000       0.707107      q
 q401                  2060.000       0.707107      q
 q402                  1960.000       0.707107      q
 q403                  1920.000       0.707107      q
 q404                  1880.000       0.707107      q
 q405                  1790.000       0.707107      q
 q406                  1750.000       0.707107      q
 q407                  1690.000       0.707107      q
 q408                  1750.000       0.707107      q
 q409                  1700.000       0.707107      q
 q410                  1700.000       0.707107      q
 q411                  1660.000       0.707107      q
 q412                  1690.000       0.707107      q
 q413                  1670.000       0.707107      q
 q414                  1770.000       0.707107      q
 q415                  1730.000       0.707107      q
 q416                  1610.000       0.707107      q
 q417                  1580.000       0.707107      q
 q418                  1610.000       0.707107      q
 q419                  1590.000       0.707107      q
 q420                  1560.000       0.707107      q
 q421                  1490.000       0.707107      q
 q422                  1490.000       0.707107      q
 q423                  1460.000       0.707107      q
 q426                  1370.000       0.707107      q
 q428                  1380.000       0.707107      q
 q429                  1400.000       0.707107      q
 q430                  1450.000       0.707107      q
 q431                  1450.000       0.707107      q
 q432                  1420.000       0.707107      q
 q433                  1430.000       0.707107      q
 q434                  1400.000       0.707107      q
 q435                  1400.000       0.707107      q
 q436                  1440.000       0.707107      q
 q437                  1440.000       0.707107      q
 q438                  1420.000       0.707107      q
 q439                  1410.000       0.707107      q
 q440                  1410.000       0.707107      q
 q441                  1430.000       0.707107      q
 q442                  1400.000       0.707107      q
 q443                  1390.000       0.707107      q
 q445                  1400.000       0.707107      q
 q446                  1740.000       0.707107      q
 q449                  1980.000       0.707107      q
 q450                  1950.000       0.707107      q
 q451                  1850.000       0.707107      q
 q452                  1820.000       0.707107      q
 q453                  1690.000       0.707107      q
 q454                  1550.000       0.707107      q
 q455                  1450.000       0.707107      q
 q456                  1460.000       0.707107      q
 q457                  1350.000       0.707107      q
 q458                  1370.000       0.707107      q
 q459                  1360.000       0.707107      q
 q460                  1370.000       0.707107      q
 q461                  1400.000       0.707107      q
 q462                  1400.000       0.707107      q
 q463                  1420.000       0.707107      q
 q464                  1350.000       0.707107      q
 q465                  1350.000       0.707107      q
 q466                  1340.000       0.707107      q
 q467                  1350.000       0.707107      q
 q468                  1340.000       0.707107      q
 q469                  1430.000       0.707107      q
 q471                  1430.000       0.707107      q
 q472                  1380.000       0.707107      q
 q473                  1370.000       0.707107      q
 q474                  1340.000       0.707107      q
 q475                  1310.000       0.707107      q
 q476                  1310.000       0.707107      q
 q477                  1300.000       0.707107      q
 q478                  1300.000       0.707107      q
 q479                  1320.000       0.707107      q
 q480                  1320.000       0.707107      q
 q481                  1280.000       0.707107      q
 q482                  1250.000       0.707107      q
 q483                  1220.000       0.707107      q
 q485                  1220.000       0.707107      q
 q486                  1320.000       0.707107      q
 q487                  1280.000       0.707107      q
 q488                  1260.000       0.707107      q
 q489                  1240.000       0.707107      q
 q490                  1260.000       0.707107      q
 q491                  1250.000       0.707107      q
 q492                  1440.000       0.707107      q
 q494                  1380.000       0.707107      q
 q496                  1400.000       0.707107      q
 q497                  1370.000       0.707107      q
 q498                  1350.000       0.707107      q
 q499                  1340.000       0.707107      q
 q500                  1320.000       0.707107      q
 q501                  1280.000       0.707107      q
 q502                  1430.000       0.707107      q
 q503                  1420.000       0.707107      q
 q504                  1330.000       0.707107      q
 q505                  1340.000       0.707107      q
 q506                  1320.000       0.707107      q
 q507                  1300.000       0.707107      q
 q508                  1350.000       0.707107      q
 q509                  1300.000       0.707107      q
 q510                  1320.000       0.707107      q
 q511                  1340.000       0.707107      q
 q512                  1340.000       0.707107      q
 q513                  1350.000       0.707107      q
 q514                  1290.000       0.707107      q
 q515                  1310.000       0.707107      q
 q516                  1290.000       0.707107      q
 q517                  1240.000       0.707107      q
 q518                  1210.000       0.707107      q
 q519                  1180.000       0.707107      q
 q520                  1120.000       0.707107      q
 q521                  1120.000       0.707107      q
 q522                  1130.000       0.707107      q
 q523                  1140.000       0.707107      q
 q524                  1090.000       0.707107      q
 q525                  1120.000       0.707107      q
 q526                  1110.000       0.707107      q
 q527                  1130.000       0.707107      q