pcf
* control data
restart estimation
      48   10257      20      0      2
2    2 single point   1   0   0
10.0  -3  0.3  0.03  10  lamforgive derforgive
10.0  10.0  0.001
0.1  noaui
0  0.001  6  6  0.001  6
1  1  1  PARSAVEITN
* singular value decomposition
1
48 5E-06
1
* parameter groups
ddsd         relative 0.025  0.0  switch  2.0 parabolic 1.0e-4 0.5 smaller
ddsw         relative 0.025  0.0  switch  2.0 parabolic 1.0e-4 0.5 smaller
ddgd         relative 0.025  0.0  switch  2.0 parabolic 1.0e-4 0.5 smaller
ddgw         relative 0.025  0.0  switch  2.0 parabolic 1.0e-4 0.5 smaller
rcsd         relative 0.025  0.0  switch  2.0 parabolic 1.0e-4 0.5 smaller
rcsw         relative 0.025  0.0  switch  2.0 parabolic 1.0e-4 0.5 smaller
rcrd         relative 0.025  0.0  switch  2.0 parabolic 1.0e-4 0.5 smaller
rcrw         relative 0.025  0.0  switch  2.0 parabolic 1.0e-4 0.5 smaller
rcgd         relative 0.025  0.0  switch  2.0 parabolic 1.0e-4 0.5 smaller
rcgw         relative 0.025  0.0  switch  2.0 parabolic 1.0e-4 0.5 smaller
tl           relative 0.025  0.0  switch  2.0 parabolic 1.0e-4 0.5 smaller
xw           relative 0.025  0.0  switch  2.0 parabolic 1.0e-4 0.5 smaller
yw           relative 0.03  0.0  switch  2.0 parabolic 1.0e-4 0.5 smaller
x           relative 0.025  0.0  switch  2.0 parabolic 1.0e-4 0.5 smaller
y            relative 0.025  0.0  switch  2.0 parabolic 1.0e-4 0.5 smaller
tlr			 relative 0.5  0.0  switch  2.0 parabolic 1.0e-4 0.5 smaller
tls			 relative 0.5  0.0  switch  2.0 parabolic 1.0e-4 0.5 smaller
beta			 relative 0.025  0.0  switch  2.0 parabolic 1.0e-4 0.5 smaller
alpha			 relative 0.025  0.0  switch  2.0 parabolic 1.0e-4 0.5 smaller
tcrit			 relative 0.025  0.0  switch  2.0 parabolic 1.0e-4 0.5 smaller
* parameter data
ddsd	log	factor   0.5549400      1.00e-01	2.1	ddsd	1	0	1
ddsw	log	factor   0.5879400      1.00e-01	2.1	ddsw	1	0	1
ddgd	log	factor    2.045676      1.00e-08	2.1	ddgd	1	0	1
ddgw	log	factor   0.2957601      1.00e-08	2.1	ddgw	1	0	1
rcs1d	log	factor    2.000000      1.00e-08	2	rcsd	1	0	1
rcs1w	log	factor    2.000000      1.00e-08	2	rcsw	1	0	1
rcs2d	log	factor    2.000000      1.00e-08	2	rcsd	1	0	1
rcs2w	log	factor   2.0283834E-02  1.00e-08	2	rcsw	1	0	1
rcs3d	log	factor    2.000000      1.00e-08	2	rcsd	1	0	1
rcs3w	log	factor   6.2992511E-03  1.00e-08	2	rcsw	1	0	1
rcs4d	log	factor   1.8017369E-02  1.00e-08	2	rcsd	1	0	1
rcs4w	log	factor   2.1932780E-03  1.00e-08	2	rcsw	1	0	1
rcs5d	log	factor    1.810817      1.00e-08	2	rcsd	1	0	1
rcs5w	log	factor    2.000000      1.00e-08	2	rcsw	1	0	1
rcs6d	log	factor   0.2364984      1.00e-08	2	rcsd	1	0	1
rcs6w	log	factor   0.1869576      1.00e-08	2	rcsw	1	0	1
rcs7d	log	factor   5.5824100E-03  1.00e-08	2	rcsd	1	0	1
rcs7w	log	factor    1.218710      1.00e-08	2	rcsw	1	0	1
rcs8d	log	factor   0.4534616      1.00e-08	2	rcsd	1	0	1
rcs8w	log	factor   0.9054363      1.00e-08	2	rcsw	1	0	1
rcr1d	log	factor   7.9358109E-02  1.00e-08	2	rcrd	1	0	1
rcr1w	log	factor    2.000000      1.00e-08	2	rcrw	1	0	1
rcr2d	log	factor   1.9736736E-03  1.00e-08	2	rcrd	1	0	1
rcr2w	log	factor   4.0235479E-03  1.00e-08	2	rcrw	1	0	1
rcr3d	log	factor   1.4049303E-03  1.00e-08	2	rcrd	1	0	1
rcr3w	log	factor   9.3749933E-03  1.00e-08	2	rcrw	1	0	1
rcr4d	log	factor   5.4117721E-04  1.00e-08	2	rcrd	1	0	1
rcr4w	log	factor   3.1252115E-03  1.00e-08	2	rcrw	1	0	1
rcr5d	log	factor   1.9036709E-03  1.00e-08	2	rcrd	1	0	1
rcr5w	log	factor   4.2115619E-03  1.00e-08	2	rcrw	1	0	1
rcr6d	log	factor   0.1810265      1.00e-08	2	rcrd	1	0	1
rcr6w	log	factor   0.1390158      1.00e-08	2	rcrw	1	0	1
rcr7d	log	factor   1.7768168E-03  1.00e-08	2	rcrd	1	0	1
rcr7w	log	factor   4.3827161E-03  1.00e-08	2	rcrw	1	0	1
rcr8d	log	factor   6.2257418E-03  1.00e-08	2	rcrd	1	0	1
rcr8w	log	factor   1.3237341E-02  1.00e-08	2	rcrw	1	0	1
rcgd	log	factor   8.3956895E-02  1.00e-08	2	rcgd	1	0	1
rcgw	log	factor    1.405096      1.00e-08	2	rcgw	1	0	1
tl	log	factor    5.000000      1.00e-08	5	tl	1	0	1
xw	log	factor   0.9523951      1.00e-08	2.1	xw	1	0	1
yw	log	factor   2.5432844E-04  1.00e-08	1	yw	1	0	1
x	log	factor    1.156447      1.00e-08	2.3	x	1	0	1
y	log	factor   2.8469426E-02  1.00e-08	1	y	1	0	1
tlr	log	factor   6.8200000E-02  1.00e-08	10	tlr	1	0	1
tls	log	factor   0.2220000      1.00e-08	30	tls	1	0	1
beta	log	factor   0.1000000      1.00e-02	1e-01	beta	1	0	1
alpha	log	factor   0.9900000      6.00e-01	9.9e-01	alpha	1	0	1
tcrit	log	factor   6.7400000E-04  1.00e-05	2	tcrit	1	0	1
* observation groups
q
swe
* observation data
q1 1890.0 0.1 q
q2 1870.0 0.1 q
q3 1670.0 1.0 q
q4 1490.0 1.0 q
q5 1460.0 1.0 q
q6 1470.0 1.0 q
q7 1460.0 1.0 q
q8 1430.0 1.0 q
q9 1490.0 1.0 q
q10 1520.0 1.0 q
q11 1500.0 1.0 q
q12 1450.0 1.0 q
q13 1440.0 1.0 q
q14 1570.0 1.0 q
q15 1660.0 1.0 q
q16 1650.0 1.0 q
q17 1560.0 1.0 q
q18 1450.0 1.0 q
q19 1440.0 1.0 q
q20 1350.0 1.0 q
q21 1250.0 1.0 q
q22 1240.0 1.0 q
q23 1370.0 1.0 q
q24 1410.0 1.0 q
q25 1400.0 1.0 q
q26 1420.0 1.0 q
q27 1360.0 1.0 q
q28 1390.0 1.0 q
q29 1440.0 1.0 q
q30 1490.0 1.0 q
q31 1500.0 1.0 q
q32 1510.0 1.0 q
q33 1400.0 1.0 q
q34 1400.0 1.0 q
q35 1310.0 1.0 q
q36 1200.0 1.0 q
q37 1200.0 1.0 q
q38 1200.0 1.0 q
q39 1280.0 1.0 q
q40 1310.0 1.0 q
q41 1400.0 1.0 q
q42 1400.0 1.0 q
q43 1360.0 1.0 q
q44 1340.0 1.0 q
q45 1300.0 1.0 q
q46 1300.0 1.0 q
q47 1300.0 1.0 q
q48 1250.0 1.0 q
q49 1200.0 1.0 q
q50 1250.0 1.0 q
q51 1300.0 1.0 q
q52 1300.0 1.0 q
q53 1300.0 1.0 q
q54 1300.0 1.0 q
q55 1300.0 1.0 q
q56 1390.0 1.0 q
q57 1500.0 1.0 q
q58 1500.0 1.0 q
q59 1510.0 1.0 q
q60 1480.0 1.0 q
q61 1440.0 1.0 q
q62 1330.0 1.0 q
q63 1350.0 1.0 q
q64 1380.0 1.0 q
q65 1450.0 1.0 q
q66 1500.0 1.0 q
q67 1460.0 1.0 q
q68 1500.0 1.0 q
q69 1470.0 1.0 q
q78 1340.0 1.0 q
q80 1350.0 1.0 q
q82 1260.0 1.0 q
q83 1290.0 1.0 q
q84 1350.0 1.0 q
q87 1250.0 1.0 q
q91 1260.0 1.0 q
q92 1270.0 1.0 q
q93 1300.0 1.0 q
q94 1370.0 1.0 q
q95 1320.0 1.0 q
q96 1270.0 1.0 q
q100 1140.0 1.0 q
q104 1450.0 1.0 q
q105 1930.0 0.1 q
q106 2029.9999999999998 0.1 q
q107 1770.0 0.1 q
q108 1730.0 1.0 q
q109 1670.0 1.0 q
q110 1630.0 1.0 q
q111 1600.0 1.0 q
q112 1560.0 1.0 q
q113 1560.0 1.0 q
q114 1550.0 1.0 q
q115 1530.0 1.0 q
q116 1480.0 1.0 q
q117 1300.0 1.0 q
q118 1300.0 1.0 q
q119 1320.0 1.0 q
q120 1340.0 1.0 q
q121 1490.0 1.0 q
q122 1480.0 1.0 q
q123 1420.0 1.0 q
q124 1330.0 1.0 q
q125 1440.0 1.0 q
q126 1270.0 1.0 q
q127 1260.0 1.0 q
q128 1270.0 1.0 q
q129 1270.0 1.0 q
q130 1320.0 1.0 q
q131 1460.0 1.0 q
q132 1470.0 1.0 q
q133 1560.0 1.0 q
q134 1680.0 1.0 q
q135 1700.0 1.0 q
q136 1900.0 0.1 q
q137 1730.0 1.0 q
q138 1630.0 1.0 q
q139 1680.0 1.0 q
q140 1660.0 1.0 q
q141 1630.0 1.0 q
q142 1630.0 1.0 q
q143 1620.0 1.0 q
q144 1600.0 1.0 q
q145 1620.0 1.0 q
q146 1620.0 1.0 q
q147 1600.0 1.0 q
q148 1580.0 1.0 q
q149 1570.0 1.0 q
q150 1530.0 1.0 q
q151 1530.0 1.0 q
q152 1530.0 1.0 q
q153 1520.0 1.0 q
q154 1470.0 1.0 q
q155 1490.0 1.0 q
q156 1470.0 1.0 q
q157 1450.0 1.0 q
q158 1420.0 1.0 q
q159 1400.0 1.0 q
q160 1390.0 1.0 q
q161 1420.0 1.0 q
q162 1390.0 1.0 q
q163 1400.0 1.0 q
q164 1410.0 1.0 q
q165 1350.0 1.0 q
q166 1760.0 0.1 q
q167 1670.0 1.0 q
q168 1360.0 1.0 q
q169 1560.0 1.0 q
q170 1480.0 1.0 q
q171 1600.0 1.0 q
q172 1660.0 1.0 q
q173 1620.0 1.0 q
q174 1590.0 1.0 q
q175 1640.0 1.0 q
q177 1330.0 1.0 q
q178 1510.0 1.0 q
q179 1780.0 0.1 q
q180 1720.0 1.0 q
q181 1880.0 0.1 q
q182 1860.0 0.1 q
q183 2400.0 0.1 q
q184 2090.0 0.1 q
q185 1960.0 0.1 q
q186 2100.0 0.1 q
q187 2090.0 0.1 q
q188 2060.0 0.1 q
q189 2090.0 0.1 q
q190 2060.0 0.1 q
q191 2060.0 0.1 q
q192 2009.9999999999998 0.1 q
q193 1840.0 0.1 q
q194 1730.0 1.0 q
q195 1740.0 1.0 q
q196 1830.0 0.1 q
q197 2009.9999999999998 0.1 q
q198 2130.0 0.1 q
q199 2180.0 0.1 q
q200 2160.0 0.1 q
q201 2150.0 0.1 q
q202 2190.0 0.1 q
q203 2330.0 0.1 q
q204 2070.0 0.1 q
q205 1910.0 0.1 q
q206 2050.0 0.1 q
q207 2460.0 0.1 q
q208 2570.0 0.1 q
q209 2640.0 0.1 q
q210 2690.0 0.1 q
q211 2780.0 0.1 q
q212 2740.0 0.1 q
q213 2780.0 0.1 q
q214 2880.0 0.1 q
q215 2940.0 0.1 q
q216 2940.0 0.1 q
q217 2960.0 0.1 q
q218 2900.0 0.1 q
q219 2900.0 0.1 q
q220 2950.0 0.1 q
q221 3060.0 0.1 q
q222 3230.0 0.1 q
q223 3450.0 0.1 q
q224 3630.0 0.1 q
q225 3550.0 0.1 q
q226 3290.0 0.1 q
q227 3090.0 0.1 q
q228 3010.0 0.1 q
q229 2990.0 0.1 q
q230 2980.0 0.1 q
q231 3030.0 0.1 q
q232 3170.0 0.1 q
q233 3680.0 0.1 q
q234 4010.0 0.1 q
q235 3820.0 0.1 q
q236 3800.0 0.1 q
q237 3580.0 0.1 q
q238 3370.0 0.1 q
q239 3190.0 0.1 q
q240 3090.0 0.1 q
q241 3080.0 0.1 q
q242 3040.0 0.1 q
q243 3070.0 0.1 q
q244 3040.0 0.1 q
q245 3020.0 0.1 q
q246 3010.0 0.1 q
q247 3030.0 0.1 q
q248 3100.0 0.1 q
q249 3160.0 0.1 q
q250 3140.0 0.1 q
q251 3390.0 0.1 q
q252 3650.0 0.1 q
q253 3660.0 0.1 q
q254 4110.0 0.1 q
q255 3710.0 0.1 q
q256 3710.0 0.1 q
q257 3840.0 0.1 q
q258 3650.0 0.1 q
q259 3670.0 0.1 q
q260 3820.0 0.1 q
q261 4120.0 0.1 q
q262 3960.0 0.1 q
q263 4059.9999999999995 0.1 q
q264 4550.0 0.1 q
q265 4300.0 0.1 q
q266 4670.0 0.1 q
q267 5890.0 0.1 q
q268 6140.0 0.1 q
q269 6240.0 0.1 q
q270 6640.0 0.1 q
q271 7290.0 0.1 q
q272 8560.0 0.1 q
q273 9060.0 0.1 q
q274 9190.0 0.1 q
q275 9650.0 0.1 q
q276 9710.0 0.1 q
q277 9280.0 0.1 q
q278 8440.0 0.1 q
q279 8510.0 0.1 q
q280 9580.0 0.1 q
q281 10600.0 0.1 q
q282 11100.0 0.1 q
q283 11000.0 0.1 q
q284 10500.0 0.1 q
q285 10000.0 0.1 q
q286 9800.0 0.1 q
q287 9830.0 0.1 q
q288 10300.0 0.1 q
q289 11200.0 0.1 q
q290 12000.0 0.1 q
q291 12500.0 0.1 q
q292 12800.0 0.1 q
q293 13100.0 0.1 q
q294 14100.0 0.1 q
q295 15500.0 0.1 q
q296 15600.0 0.1 q
q297 15700.0 0.1 q
q298 15400.0 0.1 q
q299 14100.0 0.1 q
q300 13100.0 0.1 q
q301 13300.0 0.1 q
q302 14100.0 0.1 q
q303 15000.0 0.1 q
q304 15100.0 0.1 q
q305 13900.0 0.1 q
q306 12900.0 0.1 q
q307 12500.0 0.1 q
q308 11800.0 0.1 q
q309 11000.0 0.1 q
q310 10200.0 0.1 q
q311 10000.0 0.1 q
q312 9570.0 0.1 q
q313 9470.0 0.1 q
q314 8460.0 0.1 q
q315 8320.0 0.1 q
q316 7690.0 0.1 q
q317 7320.0 0.1 q
q318 7260.0 0.1 q
q319 7310.0 0.1 q
q320 7610.0 0.1 q
q321 8130.000000000001 0.1 q
q322 9340.0 0.1 q
q323 11100.0 0.1 q
q324 12100.0 0.1 q
q325 12300.0 0.1 q
q326 12700.0 0.1 q
q327 13600.0 0.1 q
q328 14200.0 0.1 q
q329 14200.0 0.1 q
q330 14300.0 0.1 q
q331 14700.0 0.1 q
q332 14600.0 0.1 q
q333 14500.0 0.1 q
q334 14400.0 0.1 q
q335 14000.0 0.1 q
q336 13400.0 0.1 q
q337 12800.0 0.1 q
q338 12200.0 0.1 q
q339 11600.0 0.1 q
q340 10900.0 0.1 q
q341 10400.0 0.1 q
q342 10400.0 0.1 q
q343 9970.0 0.1 q
q344 9510.0 0.1 q
q345 9400.0 0.1 q
q346 9090.0 0.1 q
q347 8540.0 0.1 q
q348 8090.0 0.1 q
q349 7690.0 0.1 q
q350 7400.0 0.1 q
q351 7230.0 0.1 q
q352 6980.0 0.1 q
q353 6850.0 0.1 q
q354 6710.0 0.1 q
q355 6510.0 0.1 q
q356 6220.0 0.1 q
q357 5950.0 0.1 q
q358 5700.0 0.1 q
q359 5500.0 0.1 q
q360 5260.0 0.1 q
q361 4910.0 0.1 q
q362 4930.0 0.1 q
q363 4700.0 0.1 q
q364 4620.0 0.1 q
q365 4480.0 0.1 q
q366 4770.0 0.1 q
q367 4710.0 0.1 q
q368 4270.0 0.1 q
q369 3890.0 0.1 q
q370 3690.0 0.1 q
q371 3470.0 0.1 q
q372 3370.0 0.1 q
q373 3320.0 0.1 q
q374 3130.0 0.1 q
q375 3100.0 0.1 q
q376 3010.0 0.1 q
q377 3010.0 0.1 q
q378 3040.0 0.1 q
q379 3030.0 0.1 q
q380 2980.0 0.1 q
q381 3030.0 0.1 q
q382 3010.0 0.1 q
q383 3010.0 0.1 q
q384 2960.0 0.1 q
q385 2900.0 0.1 q
q386 2880.0 0.1 q
q387 2890.0 0.1 q
q388 2910.0 0.1 q
q389 2780.0 0.1 q
q390 2600.0 0.1 q
q391 2670.0 0.1 q
q392 2710.0 0.1 q
q393 2720.0 0.1 q
q394 2720.0 0.1 q
q395 2680.0 0.1 q
q396 2600.0 0.1 q
q397 2580.0 0.1 q
q398 2490.0 0.1 q
q399 2320.0 0.1 q
q400 2370.0 0.1 q
q401 2330.0 0.1 q
q402 2290.0 0.1 q
q403 2260.0 0.1 q
q404 2220.0 0.1 q
q405 2250.0 0.1 q
q406 2310.0 0.1 q
q407 2300.0 0.1 q
q408 2290.0 0.1 q
q409 2220.0 0.1 q
q410 2230.0 0.1 q
q411 2100.0 0.1 q
q412 2090.0 0.1 q
q413 2009.9999999999998 0.1 q
q414 2180.0 0.1 q
q415 2090.0 0.1 q
q416 2060.0 0.1 q
q417 2020.0 0.1 q
q418 2009.9999999999998 0.1 q
q419 2040.0 0.1 q
q420 2160.0 0.1 q
q421 2240.0 0.1 q
q422 2210.0 0.1 q
q423 2160.0 0.1 q
q424 2050.0 0.1 q
q425 1990.0 0.1 q
q426 2009.9999999999998 0.1 q
q427 1920.0 0.1 q
q428 1880.0 0.1 q
q429 1890.0 0.1 q
q430 1900.0 0.1 q
q431 1850.0 0.1 q
q432 1840.0 0.1 q
q433 1850.0 0.1 q
q434 1860.0 0.1 q
q435 1890.0 0.1 q
q436 1870.0 0.1 q
q437 1860.0 0.1 q
q438 1860.0 0.1 q
q439 1860.0 0.1 q
q440 1840.0 0.1 q
q441 1920.0 0.1 q
q442 1910.0 0.1 q
q443 1870.0 0.1 q
q444 1820.0 0.1 q
q445 1800.0 0.1 q
q446 1970.0 0.1 q
q447 2080.0 0.1 q
q448 2060.0 0.1 q
q449 2130.0 0.1 q
q450 2029.9999999999998 0.1 q
q451 1980.0 0.1 q
q452 1960.0 0.1 q
q453 1940.0 0.1 q
q454 1900.0 0.1 q
q455 1920.0 0.1 q
q456 1950.0 0.1 q
q457 1920.0 0.1 q
q458 1880.0 0.1 q
q459 1840.0 0.1 q
q460 1800.0 0.1 q
q461 1870.0 0.1 q
q462 1950.0 0.1 q
q463 1920.0 0.1 q
q464 1810.0 0.1 q
q465 1780.0 0.1 q
q466 1760.0 0.1 q
q467 1780.0 0.1 q
q468 1850.0 0.1 q
q469 1980.0 0.1 q
q470 2040.0 0.1 q
q471 1930.0 0.1 q
q472 1880.0 0.1 q
q473 1830.0 0.1 q
q474 1790.0 0.1 q
q475 1790.0 0.1 q
q476 1780.0 0.1 q
q477 1780.0 0.1 q
q478 1780.0 0.1 q
q479 1850.0 0.1 q
q480 1840.0 0.1 q
q481 1810.0 0.1 q
q482 1800.0 0.1 q
q483 1780.0 0.1 q
q484 1770.0 0.1 q
q485 1740.0 1.0 q
q486 1760.0 0.1 q
q487 1720.0 1.0 q
q488 1670.0 1.0 q
q489 1720.0 1.0 q
q490 1750.0 1.0 q
q491 1800.0 0.1 q
q492 1910.0 0.1 q
q493 1960.0 0.1 q
q494 1910.0 0.1 q
q495 1890.0 0.1 q
q496 1800.0 0.1 q
q497 1780.0 0.1 q
q498 1780.0 0.1 q
q499 1820.0 0.1 q
q500 1790.0 0.1 q
q501 1870.0 0.1 q
q502 1900.0 0.1 q
q503 1920.0 0.1 q
q504 1880.0 0.1 q
q505 1830.0 0.1 q
q506 1800.0 0.1 q
q507 1770.0 0.1 q
q508 1750.0 1.0 q
q509 1740.0 1.0 q
q510 1740.0 1.0 q
q511 1710.0 1.0 q
q512 1690.0 1.0 q
q513 1690.0 1.0 q
q514 1680.0 1.0 q
q515 1680.0 1.0 q
q516 1690.0 1.0 q
q517 1680.0 1.0 q
q518 1660.0 1.0 q
q519 1670.0 1.0 q
q520 1650.0 1.0 q
q521 1630.0 1.0 q
q522 1670.0 1.0 q
q523 1620.0 1.0 q
q524 1640.0 1.0 q
q525 1590.0 1.0 q
q526 1560.0 1.0 q
q527 1570.0 1.0 q
q528 1620.0 1.0 q
q529 1590.0 1.0 q
q530 1580.0 1.0 q
q531 1620.0 1.0 q
q532 1600.0 1.0 q
q533 1480.0 1.0 q
q534 1430.0 1.0 q
q535 1440.0 1.0 q
q536 1440.0 1.0 q
q537 1540.0 1.0 q
q538 1560.0 1.0 q
q539 1480.0 1.0 q
q540 1530.0 1.0 q
q541 1440.0 1.0 q
q542 1460.0 1.0 q
q543 1560.0 1.0 q
q544 1520.0 1.0 q
q545 1480.0 1.0 q
q546 1560.0 1.0 q
q547 1500.0 1.0 q
q548 1580.0 1.0 q
q549 1570.0 1.0 q
q550 1540.0 1.0 q
q551 1470.0 1.0 q
q552 1480.0 1.0 q
q553 1510.0 1.0 q
q554 1540.0 1.0 q
q555 1590.0 1.0 q
q556 1570.0 1.0 q
q557 1620.0 1.0 q
q558 1530.0 1.0 q
q559 1620.0 1.0 q
q560 1560.0 1.0 q
q561 1480.0 1.0 q
q562 1530.0 1.0 q
q563 1550.0 1.0 q
q564 1640.0 1.0 q
q565 1650.0 1.0 q
q566 12000.0 0.1 q
q567 3170.0 0.1 q
q568 2250.0 0.1 q
q569 2390.0 0.1 q
q570 2450.0 0.1 q
q571 2370.0 0.1 q
q572 2360.0 0.1 q
q573 2160.0 0.1 q
q574 2150.0 0.1 q
q575 2070.0 0.1 q
q576 2070.0 0.1 q
q577 2160.0 0.1 q
q578 2050.0 0.1 q
q579 2070.0 0.1 q
q580 2060.0 0.1 q
q581 2140.0 0.1 q
q582 2120.0 0.1 q
q583 2160.0 0.1 q
q584 2009.9999999999998 0.1 q
q585 2000.0 0.1 q
q586 2040.0 0.1 q
q587 2060.0 0.1 q
q588 2180.0 0.1 q
q589 2310.0 0.1 q
q590 2430.0 0.1 q
q591 2290.0 0.1 q
q592 2410.0 0.1 q
q593 2360.0 0.1 q
q594 2320.0 0.1 q
q595 2300.0 0.1 q
q596 2240.0 0.1 q
q597 2230.0 0.1 q
q598 2170.0 0.1 q
q599 2370.0 0.1 q
q600 2490.0 0.1 q
q601 2800.0 0.1 q
q602 3010.0 0.1 q
q603 2830.0 0.1 q
q604 2730.0 0.1 q
q605 2750.0 0.1 q
q606 3070.0 0.1 q
q607 3190.0 0.1 q
q608 3250.0 0.1 q
q609 3490.0 0.1 q
q610 3410.0 0.1 q
q611 3110.0 0.1 q
q612 2970.0 0.1 q
q613 2970.0 0.1 q
q614 2920.0 0.1 q
q615 2940.0 0.1 q
q616 2970.0 0.1 q
q617 3050.0 0.1 q
q618 3230.0 0.1 q
q619 3230.0 0.1 q
q620 3680.0 0.1 q
q621 3980.0 0.1 q
q622 3650.0 0.1 q
q623 3560.0 0.1 q
q624 3580.0 0.1 q
q625 3810.0 0.1 q
q626 4170.0 0.1 q
q627 4220.0 0.1 q
q628 4019.9999999999995 0.1 q
q629 4010.0 0.1 q
q630 4420.0 0.1 q
q631 4920.0 0.1 q
q632 4960.0 0.1 q
q633 4860.0 0.1 q
q634 4510.0 0.1 q
q635 4560.0 0.1 q
q636 4210.0 0.1 q
q637 3950.0 0.1 q
q638 3890.0 0.1 q
q639 3770.0 0.1 q
q640 3340.0 0.1 q
q641 3140.0 0.1 q
q642 3430.0 0.1 q
q643 3970.0 0.1 q
q644 4680.0 0.1 q
q645 5770.0 0.1 q
q646 5680.0 0.1 q
q647 5610.0 0.1 q
q648 6170.0 0.1 q
q649 7320.0 0.1 q
q650 8490.0 0.1 q
q651 9240.0 0.1 q
q652 9760.0 0.1 q
q653 10300.0 0.1 q
q654 10600.0 0.1 q
q655 10800.0 0.1 q
q656 11300.0 0.1 q
q657 12000.0 0.1 q
q658 12300.0 0.1 q
q659 12100.0 0.1 q
q660 11300.0 0.1 q
q661 11600.0 0.1 q
q662 11500.0 0.1 q
q663 10800.0 0.1 q
q664 11100.0 0.1 q
q665 11900.0 0.1 q
q666 13300.0 0.1 q
q667 11700.0 0.1 q
q668 10700.0 0.1 q
q669 10400.0 0.1 q
q670 10800.0 0.1 q
q671 11800.0 0.1 q
q672 12700.0 0.1 q
q673 13200.0 0.1 q
q674 13400.0 0.1 q
q675 12900.0 0.1 q
q676 12100.0 0.1 q
q677 11100.0 0.1 q
q678 10100.0 0.1 q
q679 9580.0 0.1 q
q680 8980.0 0.1 q
q681 8670.0 0.1 q
q682 9270.0 0.1 q
q683 9890.0 0.1 q
q684 10400.0 0.1 q
q685 10300.0 0.1 q
q686 10600.0 0.1 q
q687 10700.0 0.1 q
q688 11400.0 0.1 q
q689 11500.0 0.1 q
q690 11300.0 0.1 q
q691 11000.0 0.1 q
q692 11400.0 0.1 q
q693 11600.0 0.1 q
q694 11000.0 0.1 q
q695 10400.0 0.1 q
q696 10000.0 0.1 q
q697 9570.0 0.1 q
q698 9040.0 0.1 q
q699 8980.0 0.1 q
q700 8540.0 0.1 q
q701 8160.0 0.1 q
q702 8140.000000000001 0.1 q
q703 7500.0 0.1 q
q704 6950.0 0.1 q
q705 6840.0 0.1 q
q706 6800.0 0.1 q
q707 6610.0 0.1 q
q708 6430.0 0.1 q
q709 6320.0 0.1 q
q710 6120.0 0.1 q
q711 5810.0 0.1 q
q712 5210.0 0.1 q
q713 5360.0 0.1 q
q714 5350.0 0.1 q
q715 5020.0 0.1 q
q716 5130.0 0.1 q
q717 4960.0 0.1 q
q718 4790.0 0.1 q
q719 4630.0 0.1 q
q720 4560.0 0.1 q
q721 4440.0 0.1 q
q722 4170.0 0.1 q
q723 3930.0 0.1 q
q724 3840.0 0.1 q
q725 3890.0 0.1 q
q726 4120.0 0.1 q
q727 3790.0 0.1 q
q728 3850.0 0.1 q
q729 3830.0 0.1 q
q730 3720.0 0.1 q
q731 3610.0 0.1 q
q732 3500.0 0.1 q
q733 3180.0 0.1 q
q734 3050.0 0.1 q
q735 3040.0 0.1 q
q736 3010.0 0.1 q
q737 3020.0 0.1 q
q738 2960.0 0.1 q
q739 2950.0 0.1 q
q740 2930.0 0.1 q
q741 2850.0 0.1 q
q742 2800.0 0.1 q
q743 2740.0 0.1 q
q744 2790.0 0.1 q
q745 2790.0 0.1 q
q746 2840.0 0.1 q
q747 2800.0 0.1 q
q748 2720.0 0.1 q
q749 2700.0 0.1 q
q750 2710.0 0.1 q
q751 2670.0 0.1 q
q752 2660.0 0.1 q
q753 2570.0 0.1 q
q754 2360.0 0.1 q
q755 2440.0 0.1 q
q756 2530.0 0.1 q
q757 2690.0 0.1 q
q758 2600.0 0.1 q
q759 2510.0 0.1 q
q760 2420.0 0.1 q
q761 2280.0 0.1 q
q762 2290.0 0.1 q
q763 2140.0 0.1 q
q764 2100.0 0.1 q
q765 2230.0 0.1 q
q766 2210.0 0.1 q
q767 2070.0 0.1 q
q768 2000.0 0.1 q
q769 1980.0 0.1 q
q770 1910.0 0.1 q
q771 2120.0 0.1 q
q772 2230.0 0.1 q
q773 2250.0 0.1 q
q774 2060.0 0.1 q
q775 2180.0 0.1 q
q776 2140.0 0.1 q
q777 2060.0 0.1 q
q778 1980.0 0.1 q
q779 1990.0 0.1 q
q780 1960.0 0.1 q
q781 2009.9999999999998 0.1 q
q782 2100.0 0.1 q
q783 2020.0 0.1 q
q784 1950.0 0.1 q
q785 2009.9999999999998 0.1 q
q786 1990.0 0.1 q
q787 1970.0 0.1 q
q788 2000.0 0.1 q
q789 1980.0 0.1 q
q790 2029.9999999999998 0.1 q
q791 2110.0 0.1 q
q792 2180.0 0.1 q
q793 2210.0 0.1 q
q794 2150.0 0.1 q
q795 2090.0 0.1 q
q796 2230.0 0.1 q
q797 2170.0 0.1 q
q798 2150.0 0.1 q
q799 2170.0 0.1 q
q800 2100.0 0.1 q
q801 2170.0 0.1 q
q802 2060.0 0.1 q
q803 2029.9999999999998 0.1 q
q804 1810.0 0.1 q
q805 1800.0 0.1 q
q806 1840.0 0.1 q
q807 1860.0 0.1 q
q808 1770.0 0.1 q
q809 1790.0 0.1 q
q810 1910.0 0.1 q
q811 2040.0 0.1 q
q812 2110.0 0.1 q
q813 2260.0 0.1 q
q814 2150.0 0.1 q
q815 2020.0 0.1 q
q816 1970.0 0.1 q
q817 1970.0 0.1 q
q818 2029.9999999999998 0.1 q
q819 2440.0 0.1 q
q820 2500.0 0.1 q
q821 2360.0 0.1 q
q822 1970.0 0.1 q
q823 1640.0 1.0 q
q824 1540.0 1.0 q
q825 1560.0 1.0 q
q826 1570.0 1.0 q
q827 1580.0 1.0 q
q828 1610.0 1.0 q
q829 1750.0 1.0 q
q830 1770.0 0.1 q
q831 2730.0 0.1 q
q832 2360.0 0.1 q
q833 2310.0 0.1 q
q834 2200.0 0.1 q
q835 2070.0 0.1 q
q836 2029.9999999999998 0.1 q
q837 1970.0 0.1 q
q838 1940.0 0.1 q
q839 1910.0 0.1 q
q840 1880.0 0.1 q
q841 1940.0 0.1 q
q842 1880.0 0.1 q
q843 1870.0 0.1 q
q844 1850.0 0.1 q
q845 1870.0 0.1 q
q846 1790.0 0.1 q
q847 1820.0 0.1 q
q848 1790.0 0.1 q
q849 1770.0 0.1 q
q850 1720.0 1.0 q
q851 1740.0 1.0 q
q852 1650.0 1.0 q
q853 1710.0 1.0 q
q854 1750.0 1.0 q
q855 1780.0 0.1 q
q856 1720.0 1.0 q
q857 1690.0 1.0 q
q858 1730.0 1.0 q
q859 1730.0 1.0 q
q860 1780.0 0.1 q
q861 1720.0 1.0 q
q862 1740.0 1.0 q
q863 1720.0 1.0 q
q864 1760.0 0.1 q
q865 4470.0 0.1 q
q866 3200.0 0.1 q
q867 2690.0 0.1 q
q868 2510.0 0.1 q
q869 2440.0 0.1 q
q870 2380.0 0.1 q
q871 2250.0 0.1 q
q872 2350.0 0.1 q
q873 2510.0 0.1 q
q874 2410.0 0.1 q
q875 2470.0 0.1 q
q876 8000.0 0.1 q
q877 11800.0 0.1 q
q878 4690.0 0.1 q
q879 2400.0 0.1 q
q880 3720.0 0.1 q
q881 4670.0 0.1 q
q882 5930.0 0.1 q
q883 6350.0 0.1 q
q884 5000.0 0.1 q
q885 3380.0 0.1 q
q886 9010.0 0.1 q
q887 7170.0 0.1 q
q888 6610.0 0.1 q
q889 6660.0 0.1 q
q890 6390.0 0.1 q
q891 6320.0 0.1 q
q892 6270.0 0.1 q
q893 6180.0 0.1 q
q894 6220.0 0.1 q
q895 6140.0 0.1 q
q896 6130.0 0.1 q
q897 6110.0 0.1 q
q898 6100.0 0.1 q
q899 6090.0 0.1 q
q900 6130.0 0.1 q
q901 6130.0 0.1 q
q902 6200.0 0.1 q
q903 6170.0 0.1 q
q904 6140.0 0.1 q
q905 6350.0 0.1 q
q906 6680.0 0.1 q
q907 6980.0 0.1 q
q908 8080.0 0.1 q
q909 7880.0 0.1 q
q910 7390.0 0.1 q
q911 6920.0 0.1 q
q912 6510.0 0.1 q
q913 6330.0 0.1 q
q914 6750.0 0.1 q
q915 6250.0 0.1 q
q916 5740.0 0.1 q
q917 6110.0 0.1 q
q918 5890.0 0.1 q
q919 5790.0 0.1 q
q920 5780.0 0.1 q
q921 5710.0 0.1 q
q922 5680.0 0.1 q
q923 5560.0 0.1 q
q924 5620.0 0.1 q
q925 5600.0 0.1 q
q926 5750.0 0.1 q
q927 5910.0 0.1 q
q928 6110.0 0.1 q
q929 6240.0 0.1 q
q930 6260.0 0.1 q
q931 6340.0 0.1 q
q932 6350.0 0.1 q
q933 6850.0 0.1 q
q934 6500.0 0.1 q
q935 6090.0 0.1 q
q936 5090.0 0.1 q
q937 5900.0 0.1 q
q938 6720.0 0.1 q
q939 6720.0 0.1 q
q940 6750.0 0.1 q
q941 6960.0 0.1 q
q942 6780.0 0.1 q
q943 6520.0 0.1 q
q944 6450.0 0.1 q
q945 6240.0 0.1 q
q946 6090.0 0.1 q
q947 6080.0 0.1 q
q948 5990.0 0.1 q
q949 6040.0 0.1 q
q950 6080.0 0.1 q
q951 6440.0 0.1 q
q952 6640.0 0.1 q
q953 6860.0 0.1 q
q954 7620.0 0.1 q
q955 8330.0 0.1 q
q956 8720.0 0.1 q
q957 8880.0 0.1 q
q958 9130.0 0.1 q
q959 9240.0 0.1 q
q960 9360.0 0.1 q
q961 9700.0 0.1 q
q962 9050.0 0.1 q
q963 8610.0 0.1 q
q964 8390.0 0.1 q
q965 8200.0 0.1 q
q966 8240.0 0.1 q
q967 8630.0 0.1 q
q968 8970.0 0.1 q
q969 9230.0 0.1 q
q970 10400.0 0.1 q
q971 10400.0 0.1 q
q972 9460.0 0.1 q
q973 9110.0 0.1 q
q974 8590.0 0.1 q
q975 8710.0 0.1 q
q976 8820.0 0.1 q
q977 9070.0 0.1 q
q978 9260.0 0.1 q
q979 9630.0 0.1 q
q980 9280.0 0.1 q
q981 9020.0 0.1 q
q982 8700.0 0.1 q
q983 8470.0 0.1 q
q984 8560.0 0.1 q
q985 8240.0 0.1 q
q986 8290.0 0.1 q
q987 8810.0 0.1 q
q988 9140.0 0.1 q
q989 9110.0 0.1 q
q990 8650.0 0.1 q
q991 8390.0 0.1 q
q992 8050.000000000001 0.1 q
q993 8020.0 0.1 q
q994 7970.0 0.1 q
q995 8140.000000000001 0.1 q
q996 8340.0 0.1 q
q997 8520.0 0.1 q
q998 9290.0 0.1 q
q999 10800.0 0.1 q
q1000 12200.0 0.1 q
q1001 13300.0 0.1 q
q1002 14500.0 0.1 q
q1003 14300.0 0.1 q
q1004 14000.0 0.1 q
q1005 14300.0 0.1 q
q1006 15100.0 0.1 q
q1007 14900.0 0.1 q
q1008 14600.0 0.1 q
q1009 14000.0 0.1 q
q1010 14600.0 0.1 q
q1011 14300.0 0.1 q
q1012 14000.0 0.1 q
q1013 14200.0 0.1 q
q1014 14700.0 0.1 q
q1015 16000.0 0.1 q
q1016 16900.0 0.1 q
q1017 19400.0 0.1 q
q1018 22500.0 0.1 q
q1019 24800.0 0.1 q
q1020 24700.0 0.1 q
q1021 27600.0 0.1 q
q1022 30700.0 0.1 q
q1023 29100.0 0.1 q
q1024 24200.0 0.1 q
q1025 21000.0 0.1 q
q1026 19200.0 0.1 q
q1027 18000.0 0.1 q
q1028 16800.0 0.1 q
q1029 17100.0 0.1 q
q1030 17300.0 0.1 q
q1031 18200.0 0.1 q
q1032 19400.0 0.1 q
q1033 20100.0 0.1 q
q1034 19200.0 0.1 q
q1035 21000.0 0.1 q
q1036 23500.0 0.1 q
q1037 24200.0 0.1 q
q1038 22000.0 0.1 q
q1039 21700.0 0.1 q
q1040 22100.0 0.1 q
q1041 22800.0 0.1 q
q1042 22500.0 0.1 q
q1043 22000.0 0.1 q
q1044 21400.0 0.1 q
q1045 20700.0 0.1 q
q1046 20900.0 0.1 q
q1047 21900.0 0.1 q
q1048 23700.0 0.1 q
q1049 25000.0 0.1 q
q1050 27100.0 0.1 q
q1051 29500.0 0.1 q
q1052 30700.0 0.1 q
q1053 33100.0 0.1 q
q1054 33500.0 0.1 q
q1055 32500.0 0.1 q
q1056 31100.0 0.1 q
q1057 32200.000000000004 0.1 q
q1058 34500.0 0.1 q
q1059 35900.0 0.1 q
q1060 36600.0 0.1 q
q1061 35600.0 0.1 q
q1062 35200.0 0.1 q
q1063 35700.0 0.1 q
q1064 34900.0 0.1 q
q1065 33300.0 0.1 q
q1066 30500.0 0.1 q
q1067 29500.0 0.1 q
q1068 28500.0 0.1 q
q1069 28000.0 0.1 q
q1070 27300.0 0.1 q
q1071 27300.0 0.1 q
q1072 26800.0 0.1 q
q1073 25600.0 0.1 q
q1074 24600.0 0.1 q
q1075 24000.0 0.1 q
q1076 23600.0 0.1 q
q1077 24000.0 0.1 q
q1078 23800.0 0.1 q
q1079 23500.0 0.1 q
q1080 23000.0 0.1 q
q1081 22300.0 0.1 q
q1082 21800.0 0.1 q
q1083 21400.0 0.1 q
q1084 20600.0 0.1 q
q1085 19700.0 0.1 q
q1086 18700.0 0.1 q
q1087 17900.0 0.1 q
q1088 17100.0 0.1 q
q1089 16300.0 0.1 q
q1090 15900.0 0.1 q
q1091 15500.0 0.1 q
q1092 15000.0 0.1 q
q1093 14800.0 0.1 q
q1094 14500.0 0.1 q
q1095 14000.0 0.1 q
q1096 13800.0 0.1 q
q1097 13400.0 0.1 q
q1098 12900.0 0.1 q
q1099 12300.0 0.1 q
q1100 11800.0 0.1 q
q1101 11600.0 0.1 q
q1102 11100.0 0.1 q
q1103 11000.0 0.1 q
q1104 10800.0 0.1 q
q1105 10600.0 0.1 q
q1106 10200.0 0.1 q
q1107 9970.0 0.1 q
q1108 9970.0 0.1 q
q1109 9770.0 0.1 q
q1110 9520.0 0.1 q
q1111 9220.0 0.1 q
q1112 8990.0 0.1 q
q1113 8650.0 0.1 q
q1114 8480.0 0.1 q
q1115 8370.0 0.1 q
q1116 8240.0 0.1 q
q1117 8250.0 0.1 q
q1118 8320.0 0.1 q
q1119 8000.0 0.1 q
q1120 7760.0 0.1 q
q1121 7630.0 0.1 q
q1122 7540.0 0.1 q
q1123 7440.0 0.1 q
q1124 7330.0 0.1 q
q1125 7270.0 0.1 q
q1126 7250.0 0.1 q
q1127 7190.0 0.1 q
q1128 7120.0 0.1 q
q1129 6840.0 0.1 q
q1130 6690.0 0.1 q
q1131 6500.0 0.1 q
q1132 6270.0 0.1 q
q1133 6120.0 0.1 q
q1134 6040.0 0.1 q
q1135 5970.0 0.1 q
q1136 5950.0 0.1 q
q1137 6000.0 0.1 q
q1138 6000.0 0.1 q
q1139 5970.0 0.1 q
q1140 5800.0 0.1 q
q1141 5660.0 0.1 q
q1142 5610.0 0.1 q
q1143 5490.0 0.1 q
q1144 5440.0 0.1 q
q1145 5500.0 0.1 q
q1146 5510.0 0.1 q
q1147 5440.0 0.1 q
q1148 5410.0 0.1 q
q1149 5290.0 0.1 q
q1150 5240.0 0.1 q
q1151 5180.0 0.1 q
q1152 5140.0 0.1 q
q1153 5150.0 0.1 q
q1154 5150.0 0.1 q
q1155 5090.0 0.1 q
q1156 5010.0 0.1 q
q1157 4890.0 0.1 q
q1158 4820.0 0.1 q
q1159 4890.0 0.1 q
q1160 4890.0 0.1 q
q1161 4810.0 0.1 q
q1162 4900.0 0.1 q
q1163 4910.0 0.1 q
q1164 4820.0 0.1 q
q1165 4780.0 0.1 q
q1166 4760.0 0.1 q
q1167 4620.0 0.1 q
q1168 4460.0 0.1 q
q1169 4410.0 0.1 q
q1170 4300.0 0.1 q
q1171 4270.0 0.1 q
q1172 4220.0 0.1 q
q1173 4160.0 0.1 q
q1174 4000.0 0.1 q
q1175 4059.9999999999995 0.1 q
q1176 3970.0 0.1 q
q1177 3960.0 0.1 q
q1178 3890.0 0.1 q
q1179 3870.0 0.1 q
q1180 3860.0 0.1 q
q1181 3810.0 0.1 q
q1182 3800.0 0.1 q
q1183 3740.0 0.1 q
q1184 3740.0 0.1 q
q1185 3760.0 0.1 q
q1186 3820.0 0.1 q
q1187 3860.0 0.1 q
q1188 4090.0 0.1 q
q1189 4059.9999999999995 0.1 q
q1190 3940.0 0.1 q
q1191 3820.0 0.1 q
q1192 3770.0 0.1 q
q1193 3750.0 0.1 q
q1194 3770.0 0.1 q
q1195 3780.0 0.1 q
q1196 3780.0 0.1 q
q1197 3760.0 0.1 q
q1198 3720.0 0.1 q
q1199 3670.0 0.1 q
q1200 3690.0 0.1 q
q1201 3720.0 0.1 q
q1202 3740.0 0.1 q
q1203 3780.0 0.1 q
q1204 3770.0 0.1 q
q1205 3680.0 0.1 q
q1206 3620.0 0.1 q
q1207 3630.0 0.1 q
q1208 3660.0 0.1 q
q1209 3680.0 0.1 q
q1210 3670.0 0.1 q
q1211 3610.0 0.1 q
q1212 3600.0 0.1 q
q1213 3120.0 0.1 q
q1214 3550.0 0.1 q
q1215 3540.0 0.1 q
q1216 3530.0 0.1 q
q1217 3480.0 0.1 q
q1218 3120.0 0.1 q
q1219 3170.0 0.1 q
q1220 3170.0 0.1 q
q1221 3120.0 0.1 q
q1222 3120.0 0.1 q
q1223 3200.0 0.1 q
q1224 3150.0 0.1 q
q1225 3230.0 0.1 q
q1226 3180.0 0.1 q
q1227 3190.0 0.1 q
q1228 3270.0 0.1 q
q1229 3180.0 0.1 q
q1230 3230.0 0.1 q
q1231 3250.0 0.1 q
q1232 3260.0 0.1 q
q1233 3210.0 0.1 q
q1234 3280.0 0.1 q
q1235 3380.0 0.1 q
q1236 3420.0 0.1 q
q1237 3880.0 0.1 q
q1238 4720.0 0.1 q
q1239 4780.0 0.1 q
q1240 5030.0 0.1 q
q1241 4880.0 0.1 q
q1242 4640.0 0.1 q
q1243 4520.0 0.1 q
q1244 4430.0 0.1 q
q1245 4360.0 0.1 q
q1246 4310.0 0.1 q
q1247 4400.0 0.1 q
q1248 4380.0 0.1 q
q1249 4390.0 0.1 q
q1250 4490.0 0.1 q
q1251 4090.0 0.1 q
q1252 4050.0 0.1 q
q1253 4019.9999999999995 0.1 q
q1254 4100.0 0.1 q
q1255 4160.0 0.1 q
q1256 4590.0 0.1 q
q1257 4490.0 0.1 q
q1258 4310.0 0.1 q
q1259 4220.0 0.1 q
q1260 4070.0000000000005 0.1 q
q1261 3970.0 0.1 q
q1262 4280.0 0.1 q
q1263 4150.0 0.1 q
q1264 4019.9999999999995 0.1 q
q1265 3900.0 0.1 q
q1266 3850.0 0.1 q
q1267 3890.0 0.1 q
q1268 3950.0 0.1 q
q1269 4040.0 0.1 q
q1270 4130.0 0.1 q
q1271 4130.0 0.1 q
q1272 4120.0 0.1 q
q1273 4120.0 0.1 q
q1274 4120.0 0.1 q
q1275 4070.0000000000005 0.1 q
q1276 4019.9999999999995 0.1 q
q1277 4010.0 0.1 q
q1278 3960.0 0.1 q
q1279 3990.0 0.1 q
q1280 4100.0 0.1 q
q1281 4170.0 0.1 q
q1282 4390.0 0.1 q
q1283 4290.0 0.1 q
q1284 4400.0 0.1 q
q1285 4080.0 0.1 q
q1286 4520.0 0.1 q
q1287 4540.0 0.1 q
q1288 4510.0 0.1 q
q1289 4520.0 0.1 q
q1290 4570.0 0.1 q
q1291 4600.0 0.1 q
q1292 4550.0 0.1 q
q1293 4540.0 0.1 q
q1294 4580.0 0.1 q
q1295 4600.0 0.1 q
q1296 4700.0 0.1 q
q1297 4760.0 0.1 q
q1298 4860.0 0.1 q
q1299 4760.0 0.1 q
q1300 4680.0 0.1 q
q1301 4490.0 0.1 q
q1302 4410.0 0.1 q
q1303 4290.0 0.1 q
q1304 4460.0 0.1 q
q1305 4390.0 0.1 q
q1306 4230.0 0.1 q
q1307 4140.0 0.1 q
q1308 4160.0 0.1 q
q1309 3980.0 0.1 q
q1310 3750.0 0.1 q
q1311 3790.0 0.1 q
q1312 3810.0 0.1 q
q1313 3800.0 0.1 q
q1314 3720.0 0.1 q
q1315 3670.0 0.1 q
q1316 3620.0 0.1 q
q1317 3520.0 0.1 q
q1318 3490.0 0.1 q
q1319 3510.0 0.1 q
q1320 3570.0 0.1 q
q1321 3660.0 0.1 q
q1322 3630.0 0.1 q
q1323 3630.0 0.1 q
q1324 3710.0 0.1 q
q1325 3780.0 0.1 q
q1326 3860.0 0.1 q
q1327 4000.0 0.1 q
q1328 3950.0 0.1 q
q1329 3910.0 0.1 q
q1330 3840.0 0.1 q
q1331 3610.0 0.1 q
q1332 3570.0 0.1 q
q1333 3500.0 0.1 q
q1334 3370.0 0.1 q
q1335 3380.0 0.1 q
q1336 3430.0 0.1 q
q1337 3440.0 0.1 q
q1338 3430.0 0.1 q
q1339 3510.0 0.1 q
q1340 3460.0 0.1 q
q1341 3590.0 0.1 q
q1342 3880.0 0.1 q
q1343 3890.0 0.1 q
q1344 3890.0 0.1 q
q1345 3980.0 0.1 q
q1346 4150.0 0.1 q
q1347 4010.0 0.1 q
q1348 3790.0 0.1 q
q1349 3640.0 0.1 q
q1350 3580.0 0.1 q
q1351 3510.0 0.1 q
q1352 3580.0 0.1 q
q1353 3910.0 0.1 q
q1354 3860.0 0.1 q
q1355 3860.0 0.1 q
q1356 4120.0 0.1 q
q1357 4260.0 0.1 q
q1358 4140.0 0.1 q
q1359 4200.0 0.1 q
q1360 4340.0 0.1 q
q1361 4590.0 0.1 q
q1362 4440.0 0.1 q
q1363 4680.0 0.1 q
q1364 4800.0 0.1 q
q1365 4640.0 0.1 q
q1366 4870.0 0.1 q
q1367 4770.0 0.1 q
q1368 4860.0 0.1 q
q1369 5240.0 0.1 q
q1370 5340.0 0.1 q
q1371 5090.0 0.1 q
q1372 5290.0 0.1 q
q1373 5420.0 0.1 q
q1374 5530.0 0.1 q
q1375 5700.0 0.1 q
q1376 5780.0 0.1 q
q1377 5670.0 0.1 q
q1378 5320.0 0.1 q
q1379 5380.0 0.1 q
q1380 5390.0 0.1 q
q1381 5770.0 0.1 q
q1382 6110.0 0.1 q
q1383 6450.0 0.1 q
q1384 6930.0 0.1 q
q1385 6960.0 0.1 q
q1386 6810.0 0.1 q
q1387 6800.0 0.1 q
q1388 6770.0 0.1 q
q1389 6830.0 0.1 q
q1390 6850.0 0.1 q
q1391 6690.0 0.1 q
q1392 6620.0 0.1 q