pcf
* control data
restart estimation
46    10395      18       0       2
2    2 single point   1   0   0
10.0  -3  0.3  0.03  10  lamforgive derforgive
10.0  10.0  0.001
0.1  noaui
0  0.005  4  4  0.005  4
0 0 0  PARSAVEITN
* singular value decomposition
1
46 5E-07
0
* parameter groups
ddsd         relative 0.025  0.0  switch  2.0 parabolic 1.0e-4 0.5 smaller
ddsw         relative 0.025  0.0  switch  2.0 parabolic 1.0e-4 0.5 smaller
ddgd         relative 0.025  0.0  switch  2.0 parabolic 1.0e-4 0.5 smaller
ddgw         relative 0.025  0.0  switch  2.0 parabolic 1.0e-4 0.5 smaller
rcsd         relative 0.025  0.0  switch  2.0 parabolic 1.0e-4 0.5 smaller
rcsw         relative 0.025  0.0  switch  2.0 parabolic 1.0e-4 0.5 smaller
rcrd         relative 0.025  0.0  switch  2.0 parabolic 1.0e-4 0.5 smaller
rcrw         relative 0.025  0.0  switch  2.0 parabolic 1.0e-4 0.5 smaller
rcgd         relative 0.025  0.0  switch  2.0 parabolic 1.0e-4 0.5 smaller
rcgw         relative 0.025  0.0  switch  2.0 parabolic 1.0e-4 0.5 smaller
tl           relative 0.025  0.0  switch  2.0 parabolic 1.0e-4 0.5 smaller
xw           relative 0.025  0.0  switch  2.0 parabolic 1.0e-4 0.5 smaller
yw           relative 0.03  0.0  switch  2.0 parabolic 1.0e-4 0.5 smaller
x           relative 0.025  0.0  switch  2.0 parabolic 1.0e-4 0.5 smaller
y            relative 0.025  0.0  switch  2.0 parabolic 1.0e-4 0.5 smaller
tlr			 relative 0.5  0.0  switch  2.0 parabolic 1.0e-4 0.5 smaller
tls			 relative 0.5  0.0  switch  2.0 parabolic 1.0e-4 0.5 smaller
beta			 relative 0.025  0.0  switch  2.0 parabolic 1.0e-4 0.5 smaller
* parameter data
ddsd	log	factor   0.1305400      1.00e-01	2.1	ddsd	1	0	1
ddsw	log	factor   0.5771400      1.00e-01	2.1	ddsw	1	0	1
ddgd	log	factor   0.1391406      1.00e-08	2.1	ddgd	1	0	1
ddgw	log	factor   1.1875817E-02  1.00e-08	2.1	ddgw	1	0	1
rcs1d	log	factor   0.9000728      1.00e-08	2	rcsd	1	0	1
rcs1w	log	factor   0.9101224      1.00e-08	2	rcsw	1	0	1
rcs2d	log	factor   0.1318243      1.00e-08	2	rcsd	1	0	1
rcs2w	log	factor    2.000000      1.00e-08	2	rcsw	1	0	1
rcs3d	log	factor   1.2886270E-02  1.00e-08	1	rcsd	1	0	1
rcs3w	log	factor   0.9398097      1.00e-08	1	rcsw	1	0	1
rcs4d	log	factor   1.8116323E-03  1.00e-08	1	rcsd	1	0	1
rcs4w	log	factor   2.4321908E-03  1.00e-08	1	rcsw	1	0	1
rcs5d	log	factor   0.5599088      1.00e-08	1	rcsd	1	0	1
rcs5w	log	factor   5.4657603E-03  1.00e-08	1	rcsw	1	0	1
rcs6d	log	factor   1.0047201E-02  1.00e-08	1	rcsd	1	0	1
rcs6w	log	factor   0.7496279      1.00e-08	1	rcsw	1	0	1
rcs7d	log	factor   0.2695895      1.00e-08	1	rcsd	1	0	1
rcs7w	log	factor   2.7422491E-04  1.00e-08	1	rcsw	1	0	1
rcs8d	log	factor   7.8964033E-03  1.00e-08	1	rcsd	1	0	1
rcs8w	log	factor   2.6777574E-04  1.00e-08	1	rcsw	1	0	1
rcr1d	log	factor   0.3551347      1.00e-08	1	rcrd	1	0	1
rcr1w	log	factor   1.0672748E-02  1.00e-08	1	rcrw	1	0	1
rcr2d	log	factor   1.6625479E-03  1.00e-08	1	rcrd	1	0	1
rcr2w	log	factor   0.9761532      1.00e-08	1	rcrw	1	0	1
rcr3d	log	factor   1.3157780E-03  1.00e-08	1	rcrd	1	0	1
rcr3w	log	factor   1.8168982E-03  1.00e-08	1	rcrw	1	0	1
rcr4d	log	factor   9.7337970E-04  1.00e-08	1	rcrd	1	0	1
rcr4w	log	factor   1.1363116E-03  1.00e-08	1	rcrw	1	0	1
rcr5d	log	factor   2.4100359E-04  1.00e-08	1	rcrd	1	0	1
rcr5w	log	factor   3.3128156E-04  1.00e-08	1	rcrw	1	0	1
rcr6d	log	factor   1.0449237E-04  1.00e-08	1	rcrd	1	0	1
rcr6w	log	factor   2.3351632E-04  1.00e-08	1	rcrw	1	0	1
rcr7d	log	factor   5.3122913E-05  1.00e-08	1	rcrd	1	0	1
rcr7w	log	factor   4.2586262E-04  1.00e-08	1	rcrw	1	0	1
rcr8d	log	factor   5.3402951E-05  1.00e-08	1	rcrd	1	0	1
rcr8w	log	factor   4.1866474E-04  1.00e-08	1	rcrw	1	0	1
rcgd	log	factor   1.6273313E-02  1.00e-08	2	rcgd	1	0	1
rcgw	log	factor   5.6419584E-02  1.00e-08	2	rcgw	1	0	1
tl	log	factor    4.467475      1.00e-08	5	tl	1	0	1
xw	log	factor    2.100000      1.00e-08	2.1	xw	1	0	1
yw	log	factor   0.1768574      1.00e-08	1	yw	1	0	1
x	log	factor    1.283841      1.00e-08	2.3	x	1	0	1
y	log	factor   0.1025580      1.00e-08	1	y	1	0	1
tlr	log	factor   6.8200000E-02  1.00e-08	10	tlr	1	0	1
tls	log	factor   0.2220000      1.00e-08	30	tls	1	0	1
beta	log	factor   0.6000000      2.00e-01	6e-01	beta	1	0	1
* observation groups
q
swe
* observation data
 q1                    286.0000       0.707107      q
 q2                    313.0000       0.707107      q
 q4                    274.0000       0.707107      q
 q5                    234.0000       0.707107      q
 q6                    244.0000       0.707107      q
 q7                    244.0000       0.707107      q
 q8                    235.0000       0.707107      q
 q9                    233.0000       0.707107      q
 q10                   233.0000       0.707107      q
 q11                   234.0000       0.707107      q
 q12                   228.0000       0.707107      q
 q13                   231.0000       0.707107      q
 q14                   221.0000       0.707107      q
 q15                   215.0000       0.707107      q
 q16                   230.0000       0.707107      q
 q17                   230.0000       0.707107      q
 q18                   228.0000       0.707107      q
 q19                   239.0000       0.707107      q
 q20                   236.0000       0.707107      q
 q21                   222.0000       0.707107      q
 q22                   222.0000       0.707107      q
 q23                   216.0000       0.707107      q
 q24                   217.0000       0.707107      q
 q25                   193.0000       0.707107      q
 q26                   169.0000       0.707107      q
 q27                   167.0000       0.707107      q
 q28                   168.0000       0.707107      q
 q29                   171.0000       0.707107      q
 q30                   164.0000       0.707107      q
 q31                   146.0000       0.707107      q
 q32                   139.0000       0.707107      q
 q33                   144.0000       0.707107      q
 q34                   143.0000       0.707107      q
 q35                   154.0000       0.707107      q
 q36                   130.0000       0.707107      q
 q37                   132.0000       0.707107      q
 q38                   128.0000       0.707107      q
 q39                   120.0000       0.707107      q
 q40                   130.0000       0.707107      q
 q41                   126.0000       0.707107      q
 q42                   134.0000       0.707107      q
 q43                   136.0000       0.707107      q
 q44                   146.0000       0.707107      q
 q45                   138.0000       0.707107      q
 q46                   151.0000       0.707107      q
 q47                   147.0000       0.707107      q
 q48                   143.0000       0.707107      q
 q49                   144.0000       0.707107      q
 q50                   149.0000       0.707107      q
 q51                   130.0000       0.707107      q
 q52                   121.0000       0.707107      q
 q54                   139.0000       0.707107      q
 q55                   131.0000       0.707107      q
 q56                   152.0000       0.707107      q
 q57                   174.0000       0.707107      q
 q58                   181.0000       0.707107      q
 q59                   171.0000       0.707107      q
 q61                   165.0000       0.707107      q
 q62                   133.0000       0.707107      q
 q63                   152.0000       0.707107      q
 q64                   129.0000       0.707107      q
 q65                   140.0000       0.707107      q
 q66                   112.0000       0.707107      q
 q67                   110.0000       0.707107      q
 q68                   102.0000       0.707107      q
 q69                   100.0000       0.707107      q
 q70                   133.0000       0.707107      q
 q71                   123.0000       0.707107      q
 q72                   96.00000       0.707107      q
 q73                   94.00000       0.707107      q
 q74                   94.00000       0.707107      q
 q75                   95.00000       0.707107      q
 q77                   131.0000       0.707107      q
 q78                   158.0000       0.707107      q
 q79                   172.0000       0.707107      q
 q80                   161.0000       0.707107      q
 q81                   171.0000       0.707107      q
 q82                   153.0000       0.707107      q
 q83                   145.0000       0.707107      q
 q84                   125.0000       0.707107      q
 q85                   150.0000       0.707107      q
 q86                   187.0000       0.707107      q
 q88                   169.0000       0.707107      q
 q89                   136.0000       0.707107      q
 q90                   135.0000       0.707107      q
 q91                   167.0000       0.707107      q
 q92                   170.0000       0.707107      q
 q93                   162.0000       0.707107      q
 q94                   144.0000       0.707107      q
 q95                   133.0000       0.707107      q
 q96                   104.0000       0.707107      q
 q98                   107.0000       0.707107      q
 q99                   147.0000       0.707107      q
 q100                  111.0000       0.707107      q
 q101                  141.0000       0.707107      q
 q102                  158.0000       0.707107      q
 q103                  146.0000       0.707107      q
 q104                  134.0000       0.707107      q
 q105                  150.0000       0.707107      q
 q106                  156.0000       0.707107      q
 q107                  142.0000       0.707107      q
 q108                  159.0000       0.707107      q
 q110                  251.0000       0.707107      q
 q111                  213.0000       0.707107      q
 q112                  202.0000       0.707107      q
 q113                  277.0000       0.707107      q
 q114                  239.0000       0.707107      q
 q115                  216.0000       0.707107      q
 q116                  232.0000       0.707107      q
 q117                  280.0000       0.707107      q
 q118                  218.0000       0.707107      q
 q119                  211.0000       0.707107      q
 q120                  196.0000       0.707107      q
 q121                  190.0000       0.707107      q
 q122                  172.0000       0.707107      q
 q123                  169.0000       0.707107      q
 q124                  199.0000       0.707107      q
 q125                  195.0000       0.707107      q
 q126                  192.0000       0.707107      q
 q127                  179.0000       0.707107      q
 q129                  165.0000       0.707107      q
 q130                  162.0000       0.707107      q
 q131                  201.0000       0.707107      q
 q132                  218.0000       0.707107      q
 q133                  240.0000       0.707107      q
 q134                  235.0000       0.707107      q
 q135                  246.0000       0.707107      q
 q136                  261.0000       0.707107      q
 q137                  250.0000       0.707107      q
 q138                  309.0000       0.707107      q
 q139                  289.0000       0.707107      q
 q140                  333.0000       0.707107      q
 q141                  315.0000       0.707107      q
 q142                  300.0000       0.707107      q
 q143                  295.0000       0.707107      q
 q144                  316.0000       0.707107      q
 q145                  356.0000       0.707107      q
 q146                  358.0000       0.707107      q
 q147                  339.0000       0.707107      q
 q148                  354.0000       0.707107      q
 q149                  329.0000       0.707107      q
 q150                  313.0000       0.707107      q
 q151                  312.0000       0.707107      q
 q153                  342.0000       0.707107      q
 q154                  351.0000       0.707107      q
 q155                  310.0000       0.707107      q
 q156                  294.0000       0.707107      q
 q158                  296.0000       0.707107      q
 q159                  347.0000       0.707107      q
 q160                  324.0000       0.707107      q
 q161                  323.0000       0.707107      q
 q162                  287.0000       0.707107      q
 q163                  284.0000       0.707107      q
 q164                  291.0000       0.707107      q
 q165                  301.0000       0.707107      q
 q166                  868.0000       0.707107      q
 q167                  1260.000       0.707107      q
 q168                  822.0000       0.707107      q
 q169                  806.0000       0.707107      q
 q170                  757.0000       0.707107      q
 q171                  751.0000       0.707107      q
 q172                  765.0000       0.707107      q
 q173                  735.0000       0.707107      q
 q174                  718.0000       0.707107      q
 q175                  7750.000       0.707107      q
 q177                  3840.000       0.707107      q
 q178                  3620.000       0.707107      q
 q179                  12900.00       0.707107      q
 q180                  3620.000       0.707107      q
 q209                  3640.000       0.707107      q
 q211                  3640.000       0.707107      q
 q212                  3500.000       0.707107      q
 q213                  3380.000       0.707107      q
 q214                  3480.000       0.707107      q
 q215                  3450.000       0.707107      q
 q216                  3340.000       0.707107      q
 q217                  3280.000       0.707107      q
 q218                  3120.000       0.707107      q
 q219                  2860.000       0.707107      q
 q220                  2810.000       0.707107      q
 q221                  3150.000       0.707107      q
 q222                  3390.000       0.707107      q
 q223                  3430.000       0.707107      q
 q224                  3470.000       0.707107      q
 q225                  3360.000       0.707107      q
 q226                  3160.000       0.707107      q
 q227                  2880.000       0.707107      q
 q228                  2710.000       0.707107      q
 q229                  2600.000       0.707107      q
 q230                  2460.000       0.707107      q
 q231                  2430.000       0.707107      q
 q232                  2530.000       0.707107      q
 q233                  2690.000       0.707107      q
 q234                  3540.000       0.707107      q
 q235                  3180.000       0.707107      q
 q236                  2900.000       0.707107      q
 q237                  2720.000       0.707107      q
 q238                  2690.000       0.707107      q
 q239                  2530.000       0.707107      q
 q240                  2420.000       0.707107      q
 q241                  2360.000       0.707107      q
 q242                  2310.000       0.707107      q
 q244                  2310.000       0.707107      q
 q246                  2440.000       0.707107      q
 q247                  2470.000       0.707107      q
 q248                  2500.000       0.707107      q
 q249                  2530.000       0.707107      q
 q250                  2580.000       0.707107      q
 q251                  2670.000       0.707107      q
 q252                  2710.000       0.707107      q
 q253                  2640.000       0.707107      q
 q255                  5550.000       0.707107      q
 q256                  5190.000       0.707107      q
 q257                  10000.00       0.707107      q
 q258                  5370.000       0.707107      q
 q259                  4890.000       0.707107      q
 q260                  4750.000       0.707107      q
 q261                  5590.000       0.707107      q
 q262                  5190.000       0.707107      q
 q263                  5530.000       0.707107      q
 q264                  12400.00       0.707107      q
 q265                  6770.000       0.707107      q
 q266                  7000.000       0.707107      q
 q267                  9590.000       0.707107      q
 q268                  10100.00       0.707107      q
 q269                  9640.000       0.707107      q
 q270                  9800.000       0.707107      q
 q271                  10100.00       0.707107      q
 q272                  10100.00       0.707107      q
 q273                  9080.000       0.707107      q
 q274                  8430.000       0.707107      q
 q275                  8300.000       0.707107      q
 q276                  8160.000       0.707107      q
 q277                  6770.000       0.707107      q
 q278                  6140.000       0.707107      q
 q279                  6240.000       0.707107      q
 q280                  6790.000       0.707107      q
 q281                  7540.000       0.707107      q
 q282                  8240.000       0.707107      q
 q283                  7800.000       0.707107      q
 q284                  6970.000       0.707107      q
 q285                  6480.000       0.707107      q
 q286                  6340.000       0.707107      q
 q287                  6230.000       0.707107      q
 q288                  6400.000       0.707107      q
 q289                  6740.000       0.707107      q
 q290                  6870.000       0.707107      q
 q291                  7170.000       0.707107      q
 q292                  7420.000       0.707107      q
 q293                  7540.000       0.707107      q
 q294                  8550.000       0.707107      q
 q295                  9970.000       0.707107      q
 q296                  9950.000       0.707107      q
 q297                  8880.000       0.707107      q
 q298                  8290.000       0.707107      q
 q299                  7230.000       0.707107      q
 q300                  6840.000       0.707107      q
 q301                  6890.000       0.707107      q
 q302                  7470.000       0.707107      q
 q303                  8270.000       0.707107      q
 q304                  9100.000       0.707107      q
 q305                  8060.000       0.707107      q
 q306                  7100.000       0.707107      q
 q307                  6590.000       0.707107      q
 q308                  6320.000       0.707107      q
 q309                  6010.000       0.707107      q
 q310                  5740.000       0.707107      q
 q311                  5660.000       0.707107      q
 q312                  5470.000       0.707107      q
 q313                  5380.000       0.707107      q
 q314                  5230.000       0.707107      q
 q315                  5360.000       0.707107      q
 q316                  5240.000       0.707107      q
 q317                  5190.000       0.707107      q
 q318                  5170.000       0.707107      q
 q320                  5270.000       0.707107      q
 q321                  5510.000       0.707107      q
 q322                  6240.000       0.707107      q
 q323                  7480.000       0.707107      q
 q324                  8520.000       0.707107      q
 q325                  8880.000       0.707107      q
 q326                  9460.000       0.707107      q
 q327                  10100.00       0.707107      q
 q328                  10100.00       0.707107      q
 q329                  10300.00       0.707107      q
 q330                  10800.00       0.707107      q
 q331                  11800.00       0.707107      q
 q333                  12200.00       0.707107      q
 q334                  11500.00       0.707107      q
 q335                  11100.00       0.707107      q
 q337                  7500.000       0.707107      q
 q338                  7070.000       0.707107      q
 q339                  6590.000       0.707107      q
 q340                  6100.000       0.707107      q
 q341                  5990.000       0.707107      q
 q342                  6040.000       0.707107      q
 q343                  5570.000       0.707107      q
 q344                  5250.000       0.707107      q
 q345                  5170.000       0.707107      q
 q346                  5040.000       0.707107      q
 q347                  5070.000       0.707107      q
 q348                  4960.000       0.707107      q
 q349                  4920.000       0.707107      q
 q350                  4870.000       0.707107      q
 q351                  4840.000       0.707107      q
 q352                  4860.000       0.707107      q
 q353                  4820.000       0.707107      q
 q354                  4780.000       0.707107      q
 q355                  4850.000       0.707107      q
 q356                  4710.000       0.707107      q
 q357                  4600.000       0.707107      q
 q358                  4530.000       0.707107      q
 q359                  4500.000       0.707107      q
 q360                  4450.000       0.707107      q
 q361                  4430.000       0.707107      q
 q362                  4400.000       0.707107      q
 q363                  4350.000       0.707107      q
 q364                  4330.000       0.707107      q
 q365                  4320.000       0.707107      q
 q367                  3910.000       0.707107      q
 q368                  3890.000       0.707107      q
 q369                  3920.000       0.707107      q
 q370                  3960.000       0.707107      q
 q371                  4010.000       0.707107      q
 q372                  4040.000       0.707107      q
 q374                  3990.000       0.707107      q
 q375                  3890.000       0.707107      q
 q376                  3800.000       0.707107      q
 q377                  3790.000       0.707107      q
 q378                  3750.000       0.707107      q
 q379                  3670.000       0.707107      q
 q380                  3670.000       0.707107      q
 q381                  3660.000       0.707107      q
 q382                  3710.000       0.707107      q
 q383                  3800.000       0.707107      q
 q384                  3770.000       0.707107      q
 q385                  3800.000       0.707107      q
 q386                  3790.000       0.707107      q
 q387                  3830.000       0.707107      q
 q388                  3780.000       0.707107      q
 q389                  3910.000       0.707107      q
 q390                  3960.000       0.707107      q
 q391                  4000.000       0.707107      q
 q392                  3810.000       0.707107      q
 q393                  3850.000       0.707107      q
 q394                  3810.000       0.707107      q
 q395                  3790.000       0.707107      q
 q396                  3840.000       0.707107      q
 q397                  355.0000       0.707107      q
 q398                  257.0000       0.707107      q
 q399                  144.0000       0.707107      q
 q400                  131.0000       0.707107      q
 q401                  134.0000       0.707107      q
 q402                  146.0000       0.707107      q
 q403                  155.0000       0.707107      q
 q404                  147.0000       0.707107      q
 q405                  144.0000       0.707107      q
 q407                  136.0000       0.707107      q
 q408                  135.0000       0.707107      q
 q409                  135.0000       0.707107      q
 q410                  147.0000       0.707107      q
 q411                  136.0000       0.707107      q
 q412                  146.0000       0.707107      q
 q413                  136.0000       0.707107      q
 q414                  141.0000       0.707107      q
 q415                  145.0000       0.707107      q
 q416                  195.0000       0.707107      q
 q417                  194.0000       0.707107      q
 q418                  188.0000       0.707107      q
 q419                  245.0000       0.707107      q
 q420                  267.0000       0.707107      q
 q421                  322.0000       0.707107      q
 q422                  210.0000       0.707107      q
 q423                  196.0000       0.707107      q
 q424                  208.0000       0.707107      q
 q425                  145.0000       0.707107      q
 q426                  145.0000       0.707107      q
 q427                  161.0000       0.707107      q
 q428                  133.0000       0.707107      q
 q429                  125.0000       0.707107      q
 q430                  124.0000       0.707107      q
 q431                  124.0000       0.707107      q
 q432                  122.0000       0.707107      q
 q433                  119.0000       0.707107      q
 q434                  115.0000       0.707107      q
 q436                  113.0000       0.707107      q
 q437                  115.0000       0.707107      q
 q438                  114.0000       0.707107      q
 q439                  116.0000       0.707107      q
 q440                  120.0000       0.707107      q
 q441                  122.0000       0.707107      q
 q442                  120.0000       0.707107      q
 q443                  122.0000       0.707107      q
 q444                  125.0000       0.707107      q
 q445                  126.0000       0.707107      q
 q446                  187.0000       0.707107      q
 q447                  383.0000       0.707107      q
 q449                  515.0000       0.707107      q
 q450                  470.0000       0.707107      q
 q451                  479.0000       0.707107      q
 q452                  458.0000       0.707107      q
 q453                  411.0000       0.707107      q
 q454                  450.0000       0.707107      q
 q455                  419.0000       0.707107      q
 q456                  527.0000       0.707107      q
 q457                  433.0000       0.707107      q
 q458                  411.0000       0.707107      q
 q459                  424.0000       0.707107      q
 q460                  430.0000       0.707107      q
 q461                  458.0000       0.707107      q
 q462                  444.0000       0.707107      q
 q463                  522.0000       0.707107      q
 q464                  534.0000       0.707107      q
 q465                  480.0000       0.707107      q
 q466                  413.0000       0.707107      q
 q467                  426.0000       0.707107      q
 q468                  426.0000       0.707107      q
 q469                  479.0000       0.707107      q
 q470                  510.0000       0.707107      q
 q471                  495.0000       0.707107      q
 q472                  506.0000       0.707107      q
 q473                  375.0000       0.707107      q
 q474                  388.0000       0.707107      q
 q475                  440.0000       0.707107      q
 q476                  418.0000       0.707107      q
 q477                  399.0000       0.707107      q
 q478                  420.0000       0.707107      q
 q479                  446.0000       0.707107      q
 q480                  462.0000       0.707107      q
 q481                  427.0000       0.707107      q
 q482                  339.0000       0.707107      q
 q483                  214.0000       0.707107      q
 q484                  281.0000       0.707107      q
 q485                  261.0000       0.707107      q
 q486                  287.0000       0.707107      q
 q487                  248.0000       0.707107      q
 q488                  220.0000       0.707107      q
 q490                  206.0000       0.707107      q
 q491                  241.0000       0.707107      q
 q492                  326.0000       0.707107      q
 q493                  397.0000       0.707107      q
 q494                  436.0000       0.707107      q
 q495                  474.0000       0.707107      q
 q496                  399.0000       0.707107      q
 q497                  339.0000       0.707107      q
 q498                  301.0000       0.707107      q
 q499                  231.0000       0.707107      q
 q500                  282.0000       0.707107      q
 q501                  727.0000       0.707107      q
 q502                  661.0000       0.707107      q
 q503                  572.0000       0.707107      q
 q504                  585.0000       0.707107      q
 q505                  546.0000       0.707107      q
 q506                  564.0000       0.707107      q
 q507                  608.0000       0.707107      q
 q508                  583.0000       0.707107      q
 q509                  542.0000       0.707107      q
 q510                  644.0000       0.707107      q
 q511                  584.0000       0.707107      q
 q512                  564.0000       0.707107      q
 q513                  545.0000       0.707107      q
 q514                  540.0000       0.707107      q
 q515                  554.0000       0.707107      q
 q516                  660.0000       0.707107      q
 q518                  724.0000       0.707107      q
 q519                  692.0000       0.707107      q
 q520                  712.0000       0.707107      q
 q521                  713.0000       0.707107      q
 q522                  662.0000       0.707107      q
 q523                  633.0000       0.707107      q
 q524                  564.0000       0.707107      q
 q525                  478.0000       0.707107      q
 q526                  444.0000       0.707107      q
 q527                  462.0000       0.707107      q
 q528                  472.0000       0.707107      q
 q529                  437.0000       0.707107      q
 q530                  446.0000       0.707107      q